<routes>
    <vType id="typenormal" accel="0.8" decel="4.5" sigma="0.5" length="5" minGap="2.5" maxSpeed="16.67" guiShape="passenger"/>
    <vType id="typebus" accel="0.8" decel="4.5" sigma="0.5" length="7" minGap="3" maxSpeed="13" guiShape="bus"/>

    <route id="outright" edges="3@4#0 4@5#0 5@6#0 6@2#0 1@2#0" />
    <route id="middleright" edges="3@12#0 12@13#0 13@24#0 24@21#0" />
    <route id="middleright2" edges="4@3#0 3@12#0 12@11#0 11@10#0 " />
    <route id="middleright3" edges="6@5#0 5@9#0 9@10#0 10@16#0 16@18#0" />
    <route id="circle" edges="9@8#0 8@7#0 7@18#0 18@16#0 16@10#0" />
    <route id="circle2" edges="4@11#0 11@14#0 14@15#0 15@19#0" />
    <route id="circle3" edges="15@14#0 14@23#0 23@22#0 22@21#0" />
    <route id="circle4" edges="2@6#0 6@8#0 8@16#0 16@18#0" />
    <route id="circle5" edges="10@16#0 16@17#0 17@19#0 19@15#0" />
    <vehicle id="circle_0" type="typenormal" route="circle2" depart="1" color="1,0,0"/>
    <vehicle id="middleright2st_1" type="typebus" route="middleright2" depart="2" color="blue"/>
    <vehicle id="circle_2" type="typenormal" route="circle3" depart="2" color="1,0,0"/>
    <vehicle id="circle_3" type="typenormal" route="circle4" depart="2" color="1,0,0"/>
    <vehicle id="circle_4" type="typenormal" route="circle5" depart="2" color="1,0,0"/>
    <vehicle id="circle_5" type="typenormal" route="circle5" depart="3" color="1,0,0"/>
    <vehicle id="outright_6" type="typenormal" route="outright" depart="4"/>
    <vehicle id="circle_7" type="typenormal" route="circle3" depart="4" color="1,0,0"/>
    <vehicle id="middleright2st_8" type="typebus" route="middleright2" depart="5" color="blue"/>
    <vehicle id="middleright3st_9" type="typebus" route="middleright3" depart="5" color="blue"/>
    <vehicle id="circle_10" type="typenormal" route="circle" depart="6" color="1,0,0"/>
    <vehicle id="middleright3st_11" type="typebus" route="middleright3" depart="7" color="blue"/>
    <vehicle id="circle_12" type="typenormal" route="circle" depart="8" color="1,0,0"/>
    <vehicle id="circle_13" type="typenormal" route="circle3" depart="9" color="1,0,0"/>
    <vehicle id="middleright_14" type="typenormal" route="middleright" depart="10"/>
    <vehicle id="middleright3st_15" type="typebus" route="middleright3" depart="10" color="blue"/>
    <vehicle id="circle_16" type="typenormal" route="circle" depart="10" color="1,0,0"/>
    <vehicle id="middleright2st_17" type="typebus" route="middleright2" depart="11" color="blue"/>
    <vehicle id="circle_18" type="typenormal" route="circle5" depart="14" color="1,0,0"/>
    <vehicle id="middleright_19" type="typenormal" route="middleright" depart="15"/>
    <vehicle id="circle_20" type="typenormal" route="circle" depart="15" color="1,0,0"/>
    <vehicle id="circle_21" type="typenormal" route="circle4" depart="15" color="1,0,0"/>
    <vehicle id="circle_22" type="typenormal" route="circle5" depart="15" color="1,0,0"/>
    <vehicle id="outright_23" type="typenormal" route="outright" depart="17"/>
    <vehicle id="circle_24" type="typenormal" route="circle2" depart="17" color="1,0,0"/>
    <vehicle id="circle_25" type="typenormal" route="circle4" depart="17" color="1,0,0"/>
    <vehicle id="circle_26" type="typenormal" route="circle" depart="18" color="1,0,0"/>
    <vehicle id="circle_27" type="typenormal" route="circle2" depart="18" color="1,0,0"/>
    <vehicle id="circle_28" type="typenormal" route="circle4" depart="18" color="1,0,0"/>
    <vehicle id="middleright2st_29" type="typebus" route="middleright2" depart="20" color="blue"/>
    <vehicle id="middleright2st_30" type="typebus" route="middleright2" depart="21" color="blue"/>
    <vehicle id="outright_31" type="typenormal" route="outright" depart="22"/>
    <vehicle id="circle_32" type="typenormal" route="circle5" depart="22" color="1,0,0"/>
    <vehicle id="circle_33" type="typenormal" route="circle5" depart="23" color="1,0,0"/>
    <vehicle id="middleright2st_34" type="typebus" route="middleright2" depart="24" color="blue"/>
    <vehicle id="circle_35" type="typenormal" route="circle" depart="24" color="1,0,0"/>
    <vehicle id="circle_36" type="typenormal" route="circle" depart="25" color="1,0,0"/>
    <vehicle id="circle_37" type="typenormal" route="circle2" depart="25" color="1,0,0"/>
    <vehicle id="outright_38" type="typenormal" route="outright" depart="26"/>
    <vehicle id="middleright2st_39" type="typebus" route="middleright2" depart="27" color="blue"/>
    <vehicle id="circle_40" type="typenormal" route="circle2" depart="27" color="1,0,0"/>
    <vehicle id="circle_41" type="typenormal" route="circle5" depart="27" color="1,0,0"/>
    <vehicle id="middleright3st_42" type="typebus" route="middleright3" depart="28" color="blue"/>
    <vehicle id="circle_43" type="typenormal" route="circle" depart="28" color="1,0,0"/>
    <vehicle id="circle_44" type="typenormal" route="circle2" depart="28" color="1,0,0"/>
    <vehicle id="circle_45" type="typenormal" route="circle3" depart="28" color="1,0,0"/>
    <vehicle id="outright_46" type="typenormal" route="outright" depart="30"/>
    <vehicle id="circle_47" type="typenormal" route="circle" depart="30" color="1,0,0"/>
    <vehicle id="circle_48" type="typenormal" route="circle3" depart="32" color="1,0,0"/>
    <vehicle id="circle_49" type="typenormal" route="circle5" depart="33" color="1,0,0"/>
    <vehicle id="circle_50" type="typenormal" route="circle4" depart="34" color="1,0,0"/>
    <vehicle id="outright_51" type="typenormal" route="outright" depart="35"/>
    <vehicle id="circle_52" type="typenormal" route="circle5" depart="36" color="1,0,0"/>
    <vehicle id="outright_53" type="typenormal" route="outright" depart="37"/>
    <vehicle id="circle_54" type="typenormal" route="circle" depart="37" color="1,0,0"/>
    <vehicle id="circle_55" type="typenormal" route="circle5" depart="37" color="1,0,0"/>
    <vehicle id="circle_56" type="typenormal" route="circle4" depart="38" color="1,0,0"/>
    <vehicle id="circle_57" type="typenormal" route="circle3" depart="39" color="1,0,0"/>
    <vehicle id="circle_58" type="typenormal" route="circle5" depart="39" color="1,0,0"/>
    <vehicle id="circle_59" type="typenormal" route="circle5" depart="40" color="1,0,0"/>
    <vehicle id="middleright3st_60" type="typebus" route="middleright3" depart="41" color="blue"/>
    <vehicle id="middleright3st_61" type="typebus" route="middleright3" depart="42" color="blue"/>
    <vehicle id="circle_62" type="typenormal" route="circle" depart="43" color="1,0,0"/>
    <vehicle id="circle_63" type="typenormal" route="circle3" depart="44" color="1,0,0"/>
    <vehicle id="circle_64" type="typenormal" route="circle4" depart="44" color="1,0,0"/>
    <vehicle id="middleright3st_65" type="typebus" route="middleright3" depart="45" color="blue"/>
    <vehicle id="circle_66" type="typenormal" route="circle2" depart="45" color="1,0,0"/>
    <vehicle id="circle_67" type="typenormal" route="circle" depart="46" color="1,0,0"/>
    <vehicle id="circle_68" type="typenormal" route="circle" depart="48" color="1,0,0"/>
    <vehicle id="circle_69" type="typenormal" route="circle" depart="49" color="1,0,0"/>
    <vehicle id="outright_70" type="typenormal" route="outright" depart="50"/>
    <vehicle id="middleright2st_71" type="typebus" route="middleright2" depart="50" color="blue"/>
    <vehicle id="circle_72" type="typenormal" route="circle" depart="50" color="1,0,0"/>
    <vehicle id="outright_73" type="typenormal" route="outright" depart="51"/>
    <vehicle id="circle_74" type="typenormal" route="circle3" depart="51" color="1,0,0"/>
    <vehicle id="middleright_75" type="typenormal" route="middleright" depart="52"/>
    <vehicle id="middleright2st_76" type="typebus" route="middleright2" depart="52" color="blue"/>
    <vehicle id="circle_77" type="typenormal" route="circle" depart="52" color="1,0,0"/>
    <vehicle id="circle_78" type="typenormal" route="circle5" depart="54" color="1,0,0"/>
    <vehicle id="circle_79" type="typenormal" route="circle2" depart="56" color="1,0,0"/>
    <vehicle id="circle_80" type="typenormal" route="circle3" depart="56" color="1,0,0"/>
    <vehicle id="outright_81" type="typenormal" route="outright" depart="57"/>
    <vehicle id="circle_82" type="typenormal" route="circle4" depart="58" color="1,0,0"/>
    <vehicle id="circle_83" type="typenormal" route="circle5" depart="59" color="1,0,0"/>
    <vehicle id="circle_84" type="typenormal" route="circle3" depart="60" color="1,0,0"/>
    <vehicle id="circle_85" type="typenormal" route="circle4" depart="60" color="1,0,0"/>
    <vehicle id="middleright3st_86" type="typebus" route="middleright3" depart="61" color="blue"/>
    <vehicle id="circle_87" type="typenormal" route="circle" depart="61" color="1,0,0"/>
    <vehicle id="outright_88" type="typenormal" route="outright" depart="63"/>
    <vehicle id="circle_89" type="typenormal" route="circle" depart="63" color="1,0,0"/>
    <vehicle id="circle_90" type="typenormal" route="circle2" depart="64" color="1,0,0"/>
    <vehicle id="circle_91" type="typenormal" route="circle5" depart="64" color="1,0,0"/>
    <vehicle id="outright_92" type="typenormal" route="outright" depart="66"/>
    <vehicle id="middleright3st_93" type="typebus" route="middleright3" depart="66" color="blue"/>
    <vehicle id="circle_94" type="typenormal" route="circle" depart="66" color="1,0,0"/>
    <vehicle id="middleright2st_95" type="typebus" route="middleright2" depart="67" color="blue"/>
    <vehicle id="circle_96" type="typenormal" route="circle3" depart="68" color="1,0,0"/>
    <vehicle id="outright_97" type="typenormal" route="outright" depart="69"/>
    <vehicle id="circle_98" type="typenormal" route="circle" depart="69" color="1,0,0"/>
    <vehicle id="circle_99" type="typenormal" route="circle2" depart="69" color="1,0,0"/>
    <vehicle id="circle_100" type="typenormal" route="circle" depart="70" color="1,0,0"/>
    <vehicle id="circle_101" type="typenormal" route="circle" depart="71" color="1,0,0"/>
    <vehicle id="circle_102" type="typenormal" route="circle4" depart="71" color="1,0,0"/>
    <vehicle id="middleright3st_103" type="typebus" route="middleright3" depart="72" color="blue"/>
    <vehicle id="circle_104" type="typenormal" route="circle" depart="72" color="1,0,0"/>
    <vehicle id="middleright2st_105" type="typebus" route="middleright2" depart="74" color="blue"/>
    <vehicle id="circle_106" type="typenormal" route="circle" depart="75" color="1,0,0"/>
    <vehicle id="circle_107" type="typenormal" route="circle3" depart="75" color="1,0,0"/>
    <vehicle id="middleright3st_108" type="typebus" route="middleright3" depart="77" color="blue"/>
    <vehicle id="circle_109" type="typenormal" route="circle2" depart="79" color="1,0,0"/>
    <vehicle id="circle_110" type="typenormal" route="circle4" depart="79" color="1,0,0"/>
    <vehicle id="middleright2st_111" type="typebus" route="middleright2" depart="80" color="blue"/>
    <vehicle id="circle_112" type="typenormal" route="circle" depart="83" color="1,0,0"/>
    <vehicle id="circle_113" type="typenormal" route="circle5" depart="83" color="1,0,0"/>
    <vehicle id="middleright2st_114" type="typebus" route="middleright2" depart="84" color="blue"/>
    <vehicle id="circle_115" type="typenormal" route="circle3" depart="85" color="1,0,0"/>
    <vehicle id="circle_116" type="typenormal" route="circle3" depart="86" color="1,0,0"/>
    <vehicle id="middleright2st_117" type="typebus" route="middleright2" depart="87" color="blue"/>
    <vehicle id="circle_118" type="typenormal" route="circle2" depart="88" color="1,0,0"/>
    <vehicle id="circle_119" type="typenormal" route="circle3" depart="88" color="1,0,0"/>
    <vehicle id="circle_120" type="typenormal" route="circle3" depart="91" color="1,0,0"/>
    <vehicle id="circle_121" type="typenormal" route="circle4" depart="91" color="1,0,0"/>
    <vehicle id="middleright3st_122" type="typebus" route="middleright3" depart="93" color="blue"/>
    <vehicle id="middleright2st_123" type="typebus" route="middleright2" depart="94" color="blue"/>
    <vehicle id="circle_124" type="typenormal" route="circle" depart="94" color="1,0,0"/>
    <vehicle id="middleright3st_125" type="typebus" route="middleright3" depart="95" color="blue"/>
    <vehicle id="middleright3st_126" type="typebus" route="middleright3" depart="97" color="blue"/>
    <vehicle id="circle_127" type="typenormal" route="circle4" depart="98" color="1,0,0"/>
    <vehicle id="middleright3st_128" type="typebus" route="middleright3" depart="99" color="blue"/>
    <vehicle id="circle_129" type="typenormal" route="circle5" depart="99" color="1,0,0"/>
    <vehicle id="middleright2st_130" type="typebus" route="middleright2" depart="100" color="blue"/>
    <vehicle id="circle_131" type="typenormal" route="circle" depart="100" color="1,0,0"/>
    <vehicle id="circle_132" type="typenormal" route="circle2" depart="100" color="1,0,0"/>
    <vehicle id="circle_133" type="typenormal" route="circle3" depart="100" color="1,0,0"/>
    <vehicle id="circle_134" type="typenormal" route="circle4" depart="101" color="1,0,0"/>
    <vehicle id="circle_135" type="typenormal" route="circle5" depart="101" color="1,0,0"/>
    <vehicle id="circle_136" type="typenormal" route="circle2" depart="102" color="1,0,0"/>
    <vehicle id="middleright3st_137" type="typebus" route="middleright3" depart="103" color="blue"/>
    <vehicle id="circle_138" type="typenormal" route="circle2" depart="103" color="1,0,0"/>
    <vehicle id="circle_139" type="typenormal" route="circle4" depart="107" color="1,0,0"/>
    <vehicle id="middleright2st_140" type="typebus" route="middleright2" depart="108" color="blue"/>
    <vehicle id="circle_141" type="typenormal" route="circle3" depart="109" color="1,0,0"/>
    <vehicle id="circle_142" type="typenormal" route="circle" depart="114" color="1,0,0"/>
    <vehicle id="circle_143" type="typenormal" route="circle2" depart="114" color="1,0,0"/>
    <vehicle id="circle_144" type="typenormal" route="circle3" depart="114" color="1,0,0"/>
    <vehicle id="middleright3st_145" type="typebus" route="middleright3" depart="115" color="blue"/>
    <vehicle id="circle_146" type="typenormal" route="circle4" depart="115" color="1,0,0"/>
    <vehicle id="circle_147" type="typenormal" route="circle3" depart="117" color="1,0,0"/>
    <vehicle id="circle_148" type="typenormal" route="circle2" depart="118" color="1,0,0"/>
    <vehicle id="circle_149" type="typenormal" route="circle" depart="119" color="1,0,0"/>
    <vehicle id="circle_150" type="typenormal" route="circle2" depart="119" color="1,0,0"/>
    <vehicle id="middleright3st_151" type="typebus" route="middleright3" depart="120" color="blue"/>
    <vehicle id="middleright2st_152" type="typebus" route="middleright2" depart="121" color="blue"/>
    <vehicle id="outright_153" type="typenormal" route="outright" depart="122"/>
    <vehicle id="middleright2st_154" type="typebus" route="middleright2" depart="123" color="blue"/>
    <vehicle id="circle_155" type="typenormal" route="circle4" depart="123" color="1,0,0"/>
    <vehicle id="circle_156" type="typenormal" route="circle5" depart="123" color="1,0,0"/>
    <vehicle id="circle_157" type="typenormal" route="circle3" depart="124" color="1,0,0"/>
    <vehicle id="circle_158" type="typenormal" route="circle4" depart="124" color="1,0,0"/>
    <vehicle id="middleright2st_159" type="typebus" route="middleright2" depart="125" color="blue"/>
    <vehicle id="circle_160" type="typenormal" route="circle" depart="125" color="1,0,0"/>
    <vehicle id="circle_161" type="typenormal" route="circle2" depart="125" color="1,0,0"/>
    <vehicle id="middleright3st_162" type="typebus" route="middleright3" depart="126" color="blue"/>
    <vehicle id="circle_163" type="typenormal" route="circle2" depart="126" color="1,0,0"/>
    <vehicle id="circle_164" type="typenormal" route="circle3" depart="126" color="1,0,0"/>
    <vehicle id="circle_165" type="typenormal" route="circle4" depart="126" color="1,0,0"/>
    <vehicle id="circle_166" type="typenormal" route="circle" depart="128" color="1,0,0"/>
    <vehicle id="circle_167" type="typenormal" route="circle3" depart="128" color="1,0,0"/>
    <vehicle id="circle_168" type="typenormal" route="circle4" depart="128" color="1,0,0"/>
    <vehicle id="circle_169" type="typenormal" route="circle2" depart="129" color="1,0,0"/>
    <vehicle id="circle_170" type="typenormal" route="circle" depart="130" color="1,0,0"/>
    <vehicle id="middleright_171" type="typenormal" route="middleright" depart="131"/>
    <vehicle id="middleright3st_172" type="typebus" route="middleright3" depart="131" color="blue"/>
    <vehicle id="circle_173" type="typenormal" route="circle" depart="131" color="1,0,0"/>
    <vehicle id="circle_174" type="typenormal" route="circle2" depart="132" color="1,0,0"/>
    <vehicle id="circle_175" type="typenormal" route="circle4" depart="132" color="1,0,0"/>
    <vehicle id="outright_176" type="typenormal" route="outright" depart="135"/>
    <vehicle id="circle_177" type="typenormal" route="circle4" depart="136" color="1,0,0"/>
    <vehicle id="circle_178" type="typenormal" route="circle2" depart="137" color="1,0,0"/>
    <vehicle id="middleright2st_179" type="typebus" route="middleright2" depart="138" color="blue"/>
    <vehicle id="circle_180" type="typenormal" route="circle2" depart="138" color="1,0,0"/>
    <vehicle id="circle_181" type="typenormal" route="circle4" depart="138" color="1,0,0"/>
    <vehicle id="circle_182" type="typenormal" route="circle" depart="140" color="1,0,0"/>
    <vehicle id="outright_183" type="typenormal" route="outright" depart="141"/>
    <vehicle id="circle_184" type="typenormal" route="circle" depart="142" color="1,0,0"/>
    <vehicle id="circle_185" type="typenormal" route="circle3" depart="142" color="1,0,0"/>
    <vehicle id="middleright2st_186" type="typebus" route="middleright2" depart="143" color="blue"/>
    <vehicle id="middleright3st_187" type="typebus" route="middleright3" depart="143" color="blue"/>
    <vehicle id="circle_188" type="typenormal" route="circle4" depart="143" color="1,0,0"/>
    <vehicle id="circle_189" type="typenormal" route="circle5" depart="143" color="1,0,0"/>
    <vehicle id="middleright3st_190" type="typebus" route="middleright3" depart="145" color="blue"/>
    <vehicle id="circle_191" type="typenormal" route="circle3" depart="145" color="1,0,0"/>
    <vehicle id="circle_192" type="typenormal" route="circle4" depart="145" color="1,0,0"/>
    <vehicle id="circle_193" type="typenormal" route="circle5" depart="146" color="1,0,0"/>
    <vehicle id="circle_194" type="typenormal" route="circle" depart="151" color="1,0,0"/>
    <vehicle id="circle_195" type="typenormal" route="circle" depart="152" color="1,0,0"/>
    <vehicle id="circle_196" type="typenormal" route="circle" depart="153" color="1,0,0"/>
    <vehicle id="middleright2st_197" type="typebus" route="middleright2" depart="155" color="blue"/>
    <vehicle id="circle_198" type="typenormal" route="circle5" depart="155" color="1,0,0"/>
    <vehicle id="circle_199" type="typenormal" route="circle" depart="156" color="1,0,0"/>
    <vehicle id="circle_200" type="typenormal" route="circle5" depart="156" color="1,0,0"/>
    <vehicle id="middleright2st_201" type="typebus" route="middleright2" depart="157" color="blue"/>
    <vehicle id="circle_202" type="typenormal" route="circle2" depart="157" color="1,0,0"/>
    <vehicle id="circle_203" type="typenormal" route="circle3" depart="157" color="1,0,0"/>
    <vehicle id="circle_204" type="typenormal" route="circle" depart="158" color="1,0,0"/>
    <vehicle id="middleright3st_205" type="typebus" route="middleright3" depart="159" color="blue"/>
    <vehicle id="circle_206" type="typenormal" route="circle" depart="159" color="1,0,0"/>
    <vehicle id="circle_207" type="typenormal" route="circle5" depart="159" color="1,0,0"/>
    <vehicle id="circle_208" type="typenormal" route="circle4" depart="160" color="1,0,0"/>
    <vehicle id="middleright2st_209" type="typebus" route="middleright2" depart="161" color="blue"/>
    <vehicle id="circle_210" type="typenormal" route="circle2" depart="162" color="1,0,0"/>
    <vehicle id="circle_211" type="typenormal" route="circle4" depart="162" color="1,0,0"/>
    <vehicle id="circle_212" type="typenormal" route="circle5" depart="163" color="1,0,0"/>
    <vehicle id="circle_213" type="typenormal" route="circle" depart="164" color="1,0,0"/>
    <vehicle id="circle_214" type="typenormal" route="circle2" depart="164" color="1,0,0"/>
    <vehicle id="middleright_215" type="typenormal" route="middleright" depart="165"/>
    <vehicle id="circle_216" type="typenormal" route="circle4" depart="166" color="1,0,0"/>
    <vehicle id="circle_217" type="typenormal" route="circle" depart="167" color="1,0,0"/>
    <vehicle id="middleright_218" type="typenormal" route="middleright" depart="168"/>
    <vehicle id="circle_219" type="typenormal" route="circle" depart="168" color="1,0,0"/>
    <vehicle id="middleright2st_220" type="typebus" route="middleright2" depart="169" color="blue"/>
    <vehicle id="circle_221" type="typenormal" route="circle2" depart="170" color="1,0,0"/>
    <vehicle id="circle_222" type="typenormal" route="circle" depart="171" color="1,0,0"/>
    <vehicle id="circle_223" type="typenormal" route="circle3" depart="171" color="1,0,0"/>
    <vehicle id="circle_224" type="typenormal" route="circle2" depart="172" color="1,0,0"/>
    <vehicle id="circle_225" type="typenormal" route="circle4" depart="172" color="1,0,0"/>
    <vehicle id="circle_226" type="typenormal" route="circle4" depart="173" color="1,0,0"/>
    <vehicle id="circle_227" type="typenormal" route="circle3" depart="175" color="1,0,0"/>
    <vehicle id="circle_228" type="typenormal" route="circle3" depart="176" color="1,0,0"/>
    <vehicle id="circle_229" type="typenormal" route="circle5" depart="176" color="1,0,0"/>
    <vehicle id="middleright3st_230" type="typebus" route="middleright3" depart="177" color="blue"/>
    <vehicle id="outright_231" type="typenormal" route="outright" depart="178"/>
    <vehicle id="middleright2st_232" type="typebus" route="middleright2" depart="178" color="blue"/>
    <vehicle id="circle_233" type="typenormal" route="circle4" depart="179" color="1,0,0"/>
    <vehicle id="middleright2st_234" type="typebus" route="middleright2" depart="181" color="blue"/>
    <vehicle id="middleright3st_235" type="typebus" route="middleright3" depart="181" color="blue"/>
    <vehicle id="middleright2st_236" type="typebus" route="middleright2" depart="182" color="blue"/>
    <vehicle id="circle_237" type="typenormal" route="circle" depart="182" color="1,0,0"/>
    <vehicle id="circle_238" type="typenormal" route="circle3" depart="182" color="1,0,0"/>
    <vehicle id="circle_239" type="typenormal" route="circle2" depart="183" color="1,0,0"/>
    <vehicle id="circle_240" type="typenormal" route="circle4" depart="183" color="1,0,0"/>
    <vehicle id="circle_241" type="typenormal" route="circle2" depart="184" color="1,0,0"/>
    <vehicle id="circle_242" type="typenormal" route="circle3" depart="184" color="1,0,0"/>
    <vehicle id="circle_243" type="typenormal" route="circle5" depart="184" color="1,0,0"/>
    <vehicle id="circle_244" type="typenormal" route="circle4" depart="185" color="1,0,0"/>
    <vehicle id="circle_245" type="typenormal" route="circle4" depart="186" color="1,0,0"/>
    <vehicle id="outright_246" type="typenormal" route="outright" depart="187"/>
    <vehicle id="circle_247" type="typenormal" route="circle3" depart="187" color="1,0,0"/>
    <vehicle id="circle_248" type="typenormal" route="circle2" depart="188" color="1,0,0"/>
    <vehicle id="middleright3st_249" type="typebus" route="middleright3" depart="190" color="blue"/>
    <vehicle id="circle_250" type="typenormal" route="circle4" depart="190" color="1,0,0"/>
    <vehicle id="circle_251" type="typenormal" route="circle2" depart="191" color="1,0,0"/>
    <vehicle id="outright_252" type="typenormal" route="outright" depart="193"/>
    <vehicle id="circle_253" type="typenormal" route="circle" depart="193" color="1,0,0"/>
    <vehicle id="circle_254" type="typenormal" route="circle3" depart="195" color="1,0,0"/>
    <vehicle id="circle_255" type="typenormal" route="circle3" depart="196" color="1,0,0"/>
    <vehicle id="middleright_256" type="typenormal" route="middleright" depart="197"/>
    <vehicle id="circle_257" type="typenormal" route="circle4" depart="197" color="1,0,0"/>
    <vehicle id="middleright2st_258" type="typebus" route="middleright2" depart="198" color="blue"/>
    <vehicle id="outright_259" type="typenormal" route="outright" depart="199"/>
    <vehicle id="middleright3st_260" type="typebus" route="middleright3" depart="199" color="blue"/>
    <vehicle id="middleright2st_261" type="typebus" route="middleright2" depart="201" color="blue"/>
    <vehicle id="middleright_262" type="typenormal" route="middleright" depart="202"/>
    <vehicle id="circle_263" type="typenormal" route="circle" depart="202" color="1,0,0"/>
    <vehicle id="circle_264" type="typenormal" route="circle3" depart="202" color="1,0,0"/>
    <vehicle id="middleright_265" type="typenormal" route="middleright" depart="203"/>
    <vehicle id="circle_266" type="typenormal" route="circle" depart="203" color="1,0,0"/>
    <vehicle id="circle_267" type="typenormal" route="circle" depart="204" color="1,0,0"/>
    <vehicle id="circle_268" type="typenormal" route="circle2" depart="204" color="1,0,0"/>
    <vehicle id="circle_269" type="typenormal" route="circle" depart="205" color="1,0,0"/>
    <vehicle id="circle_270" type="typenormal" route="circle4" depart="205" color="1,0,0"/>
    <vehicle id="middleright_271" type="typenormal" route="middleright" depart="207"/>
    <vehicle id="circle_272" type="typenormal" route="circle3" depart="207" color="1,0,0"/>
    <vehicle id="circle_273" type="typenormal" route="circle3" depart="208" color="1,0,0"/>
    <vehicle id="circle_274" type="typenormal" route="circle2" depart="209" color="1,0,0"/>
    <vehicle id="circle_275" type="typenormal" route="circle3" depart="209" color="1,0,0"/>
    <vehicle id="outright_276" type="typenormal" route="outright" depart="210"/>
    <vehicle id="circle_277" type="typenormal" route="circle" depart="210" color="1,0,0"/>
    <vehicle id="circle_278" type="typenormal" route="circle5" depart="212" color="1,0,0"/>
    <vehicle id="circle_279" type="typenormal" route="circle5" depart="216" color="1,0,0"/>
    <vehicle id="circle_280" type="typenormal" route="circle" depart="217" color="1,0,0"/>
    <vehicle id="circle_281" type="typenormal" route="circle" depart="218" color="1,0,0"/>
    <vehicle id="circle_282" type="typenormal" route="circle2" depart="218" color="1,0,0"/>
    <vehicle id="circle_283" type="typenormal" route="circle3" depart="218" color="1,0,0"/>
    <vehicle id="middleright3st_284" type="typebus" route="middleright3" depart="219" color="blue"/>
    <vehicle id="circle_285" type="typenormal" route="circle" depart="219" color="1,0,0"/>
    <vehicle id="circle_286" type="typenormal" route="circle3" depart="219" color="1,0,0"/>
    <vehicle id="circle_287" type="typenormal" route="circle5" depart="220" color="1,0,0"/>
    <vehicle id="middleright_288" type="typenormal" route="middleright" depart="223"/>
    <vehicle id="circle_289" type="typenormal" route="circle" depart="223" color="1,0,0"/>
    <vehicle id="circle_290" type="typenormal" route="circle2" depart="223" color="1,0,0"/>
    <vehicle id="middleright3st_291" type="typebus" route="middleright3" depart="224" color="blue"/>
    <vehicle id="circle_292" type="typenormal" route="circle2" depart="224" color="1,0,0"/>
    <vehicle id="circle_293" type="typenormal" route="circle3" depart="224" color="1,0,0"/>
    <vehicle id="circle_294" type="typenormal" route="circle4" depart="225" color="1,0,0"/>
    <vehicle id="circle_295" type="typenormal" route="circle" depart="226" color="1,0,0"/>
    <vehicle id="middleright_296" type="typenormal" route="middleright" depart="227"/>
    <vehicle id="circle_297" type="typenormal" route="circle3" depart="229" color="1,0,0"/>
    <vehicle id="circle_298" type="typenormal" route="circle" depart="230" color="1,0,0"/>
    <vehicle id="circle_299" type="typenormal" route="circle3" depart="230" color="1,0,0"/>
    <vehicle id="outright_300" type="typenormal" route="outright" depart="231"/>
    <vehicle id="circle_301" type="typenormal" route="circle5" depart="231" color="1,0,0"/>
    <vehicle id="circle_302" type="typenormal" route="circle3" depart="232" color="1,0,0"/>
    <vehicle id="circle_303" type="typenormal" route="circle4" depart="232" color="1,0,0"/>
    <vehicle id="middleright2st_304" type="typebus" route="middleright2" depart="233" color="blue"/>
    <vehicle id="middleright3st_305" type="typebus" route="middleright3" depart="233" color="blue"/>
    <vehicle id="middleright3st_306" type="typebus" route="middleright3" depart="235" color="blue"/>
    <vehicle id="circle_307" type="typenormal" route="circle2" depart="235" color="1,0,0"/>
    <vehicle id="circle_308" type="typenormal" route="circle3" depart="235" color="1,0,0"/>
    <vehicle id="circle_309" type="typenormal" route="circle4" depart="235" color="1,0,0"/>
    <vehicle id="circle_310" type="typenormal" route="circle" depart="236" color="1,0,0"/>
    <vehicle id="outright_311" type="typenormal" route="outright" depart="237"/>
    <vehicle id="middleright3st_312" type="typebus" route="middleright3" depart="239" color="blue"/>
    <vehicle id="circle_313" type="typenormal" route="circle" depart="239" color="1,0,0"/>
    <vehicle id="circle_314" type="typenormal" route="circle5" depart="239" color="1,0,0"/>
    <vehicle id="middleright_315" type="typenormal" route="middleright" depart="240"/>
    <vehicle id="circle_316" type="typenormal" route="circle" depart="241" color="1,0,0"/>