<?xml version="1.0" encoding="UTF-8"?>

<!-- generated on 01/31/21 23:24:29 by Eclipse SUMO netedit Version 1.7.0
<configuration xmlns:xsi="http://www.w3.org/2001/XMLSchema-instance" xsi:noNamespaceSchemaLocation="http://sumo.dlr.de/xsd/netconvertConfiguration.xsd">

    <input>
        <sumo-net-file value="D:\sumo-1.7.0\file\project\SF_network\test.net.xml"/>
    </input>

    <output>
        <output-file value="D:\sumo-1.7.0\file\project\SF_network\test.net.xml"/>
    </output>

    <processing>
        <geometry.min-radius.fix.railways value="false"/>
        <geometry.max-grade.fix value="false"/>
        <offset.disable-normalization value="true"/>
        <lefthand value="false"/>
    </processing>

    <junctions>
        <no-turnarounds value="true"/>
        <junctions.corner-detail value="0"/>
        <junctions.limit-turn-speed value="-1"/>
        <rectangular-lane-cut value="false"/>
    </junctions>

    <pedestrian>
        <walkingareas value="false"/>
    </pedestrian>

    <report>
        <aggregate-warnings value="5"/>
    </report>

</configuration>
-->

<net version="1.6" xmlns:xsi="http://www.w3.org/2001/XMLSchema-instance" xsi:noNamespaceSchemaLocation="http://sumo.dlr.de/xsd/net_file.xsd">

    <location netOffset="-285448.66,-5492398.13" convBoundary="310.20,-51.56,638.96,336.10" origBoundary="6.030969,49.549099,6.216758,49.652578" projParameter="+proj=utm +zone=32 +ellps=WGS84 +datum=WGS84 +units=m +no_defs"/>

    <edge id=":1_0" function="internal">
        <lane id=":1_0_0" index="0" speed="13.89" length="7.75" shape="314.14,337.67 312.04,337.39 310.53,336.50 309.61,335.01 309.29,332.91"/>
    </edge>
    <edge id=":1_1" function="internal">
        <lane id=":1_1_0" index="0" speed="13.89" length="2.58" shape="312.49,332.88 312.60,333.58 312.90,334.08 313.41,334.37 314.11,334.47"/>
    </edge>
    <edge id=":10_0" function="internal">
        <lane id=":10_0_0" index="0" speed="13.89" length="9.22" shape="463.62,190.13 463.23,187.64 462.14,185.86 460.34,184.78 457.85,184.41"/>
    </edge>
    <edge id=":10_1" function="internal">
        <lane id=":10_1_0" index="0" speed="13.89" length="17.19" shape="463.62,190.13 463.41,172.95"/>
    </edge>
    <edge id=":10_2" function="internal">
        <lane id=":10_2_0" index="0" speed="13.89" length="5.75" shape="463.62,190.13 464.36,186.05 465.15,184.66"/>
    </edge>
    <edge id=":10_3" function="internal">
        <lane id=":10_3_0" index="0" speed="13.89" length="4.81" shape="463.62,190.13 464.57,186.25 465.16,185.70"/>
    </edge>
    <edge id=":10_20" function="internal">
        <lane id=":10_20_0" index="0" speed="13.89" length="15.90" shape="465.15,184.66 466.71,181.91 470.65,177.72 476.20,173.47"/>
    </edge>
    <edge id=":10_21" function="internal">
        <lane id=":10_21_0" index="0" speed="13.89" length="15.55" shape="465.16,185.70 467.54,183.49 472.54,181.84 479.56,181.30"/>
    </edge>
    <edge id=":10_4" function="internal">
        <lane id=":10_4_0" index="0" speed="13.89" length="15.26" shape="479.55,184.50 473.95,184.84 469.96,185.88 467.58,187.63 466.82,190.09"/>
    </edge>
    <edge id=":10_5" function="internal">
        <lane id=":10_5_0" index="0" speed="13.89" length="21.70" shape="479.55,184.50 457.85,184.41"/>
    </edge>
    <edge id=":10_6" function="internal">
        <lane id=":10_6_0" index="0" speed="13.89" length="9.32" shape="479.55,184.50 472.54,183.76 470.45,182.86"/>
    </edge>
    <edge id=":10_7" function="internal">
        <lane id=":10_7_0" index="0" speed="13.89" length="9.27" shape="479.55,184.50 471.97,183.79 470.59,182.86"/>
    </edge>
    <edge id=":10_22" function="internal">
        <lane id=":10_22_0" index="0" speed="13.89" length="13.07" shape="470.45,182.86 467.51,181.59 464.47,177.98 463.41,172.95"/>
    </edge>
    <edge id=":10_23" function="internal">
        <lane id=":10_23_0" index="0" speed="13.89" length="13.38" shape="470.59,182.86 468.89,181.72 470.30,178.28 476.20,173.47"/>
    </edge>
    <edge id=":10_8" function="internal">
        <lane id=":10_8_0" index="0" speed="13.89" length="10.63" shape="477.99,176.13 475.22,178.38 474.56,179.99 476.00,180.97 479.56,181.30"/>
    </edge>
    <edge id=":10_9" function="internal">
        <lane id=":10_9_0" index="0" speed="13.89" length="18.50" shape="477.99,176.13 473.07,179.84 469.57,183.41 467.48,186.82 466.82,190.09"/>
    </edge>
    <edge id=":10_10" function="internal">
        <lane id=":10_10_0" index="0" speed="13.89" length="21.93" shape="477.99,176.13 473.79,178.60 468.24,181.33 462.52,183.52 457.85,184.41"/>
    </edge>
    <edge id=":10_11" function="internal">
        <lane id=":10_11_0" index="0" speed="13.89" length="20.43" shape="477.99,176.13 471.66,179.57 467.13,180.19 464.37,177.98 463.41,172.95"/>
    </edge>
    <edge id=":10_12" function="internal">
        <lane id=":10_12_0" index="0" speed="13.89" length="12.63" shape="466.61,172.91 467.24,175.56 469.05,176.53 472.03,175.84 476.20,173.47"/>
    </edge>
    <edge id=":10_13" function="internal">
        <lane id=":10_13_0" index="0" speed="13.89" length="17.32" shape="466.61,172.91 467.45,176.57 469.89,179.18 473.93,180.76 479.56,181.30"/>
    </edge>
    <edge id=":10_14" function="internal">
        <lane id=":10_14_0" index="0" speed="13.89" length="17.18" shape="466.61,172.91 466.82,190.09"/>
    </edge>
    <edge id=":10_15" function="internal">
        <lane id=":10_15_0" index="0" speed="13.89" length="7.54" shape="466.61,172.91 466.11,177.96 465.10,180.21"/>
    </edge>
    <edge id=":10_24" function="internal">
        <lane id=":10_24_0" index="0" speed="13.89" length="8.92" shape="465.10,180.21 464.48,181.57 461.73,183.71 457.85,184.41"/>
    </edge>
    <edge id=":10_16" function="internal">
        <lane id=":10_16_0" index="0" speed="13.89" length="11.26" shape="457.87,181.21 460.33,180.71 462.07,179.16 463.10,176.58 463.41,172.95"/>
    </edge>
    <edge id=":10_17" function="internal">
        <lane id=":10_17_0" index="0" speed="13.89" length="20.07" shape="457.87,181.21 462.26,180.41 467.36,178.40 472.29,175.86 476.20,173.47"/>
    </edge>
    <edge id=":10_18" function="internal">
        <lane id=":10_18_0" index="0" speed="13.89" length="21.68" shape="457.87,181.21 479.56,181.30"/>
    </edge>
    <edge id=":10_19" function="internal">
        <lane id=":10_19_0" index="0" speed="13.89" length="5.94" shape="457.87,181.21 461.74,181.79 463.48,182.83"/>
    </edge>
    <edge id=":10_25" function="internal">
        <lane id=":10_25_0" index="0" speed="13.89" length="8.37" shape="463.48,182.83 464.52,183.46 466.21,186.23 466.82,190.09"/>
    </edge>
    <edge id=":11_0" function="internal">
        <lane id=":11_0_0" index="0" speed="13.89" length="9.16" shape="379.44,189.51 379.07,187.03 378.00,185.25 376.23,184.17 373.75,183.80"/>
    </edge>
    <edge id=":11_1" function="internal">
        <lane id=":11_1_0" index="0" speed="13.89" length="14.48" shape="379.44,189.51 379.38,175.03"/>
    </edge>
    <edge id=":11_2" function="internal">
        <lane id=":11_2_0" index="0" speed="13.89" length="5.95" shape="379.44,189.51 379.97,185.64 381.02,183.89"/>
    </edge>
    <edge id=":11_12" function="internal">
        <lane id=":11_12_0" index="0" speed="13.89" length="8.29" shape="381.02,183.89 381.62,182.88 384.38,181.24 388.25,180.71"/>
    </edge>
    <edge id=":11_3" function="internal">
        <lane id=":11_3_0" index="0" speed="13.89" length="9.03" shape="388.23,183.91 385.77,184.25 384.02,185.29 382.98,187.04 382.64,189.49"/>
    </edge>
    <edge id=":11_4" function="internal">
        <lane id=":11_4_0" index="0" speed="13.89" length="14.47" shape="388.23,183.91 373.75,183.80"/>
    </edge>
    <edge id=":11_5" function="internal">
        <lane id=":11_5_0" index="0" speed="13.89" length="5.96" shape="388.23,183.91 384.37,183.33 382.61,182.27"/>
    </edge>
    <edge id=":11_13" function="internal">
        <lane id=":11_13_0" index="0" speed="13.89" length="8.31" shape="382.61,182.27 381.60,181.66 379.94,178.89 379.38,175.03"/>
    </edge>
    <edge id=":11_6" function="internal">
        <lane id=":11_6_0" index="0" speed="13.89" length="9.14" shape="382.58,175.02 382.94,177.50 384.01,179.27 385.78,180.34 388.25,180.71"/>
    </edge>
    <edge id=":11_7" function="internal">
        <lane id=":11_7_0" index="0" speed="13.89" length="14.47" shape="382.58,175.02 382.64,189.49"/>
    </edge>
    <edge id=":11_8" function="internal">
        <lane id=":11_8_0" index="0" speed="13.89" length="5.92" shape="382.58,175.02 382.04,178.89 381.00,180.61"/>
    </edge>
    <edge id=":11_14" function="internal">
        <lane id=":11_14_0" index="0" speed="13.89" length="8.32" shape="381.00,180.61 380.39,181.64 377.62,183.28 373.75,183.80"/>
    </edge>
    <edge id=":11_9" function="internal">
        <lane id=":11_9_0" index="0" speed="13.89" length="9.03" shape="373.78,180.60 376.24,180.27 377.99,179.23 379.04,177.48 379.38,175.03"/>
    </edge>
    <edge id=":11_10" function="internal">
        <lane id=":11_10_0" index="0" speed="13.89" length="14.47" shape="373.78,180.60 388.25,180.71"/>
    </edge>
    <edge id=":11_11" function="internal">
        <lane id=":11_11_0" index="0" speed="13.89" length="5.95" shape="373.78,180.60 377.64,181.18 379.39,182.24"/>
    </edge>
    <edge id=":11_15" function="internal">
        <lane id=":11_15_0" index="0" speed="13.89" length="8.32" shape="379.39,182.24 380.40,182.86 382.07,185.63 382.64,189.49"/>
    </edge>
    <edge id=":12_0" function="internal">
        <lane id=":12_0_0" index="0" speed="13.89" length="14.42" shape="308.62,188.92 308.61,174.50"/>
    </edge>
    <edge id=":12_1" function="internal">
        <lane id=":12_1_0" index="0" speed="13.89" length="5.95" shape="308.62,188.92 309.16,185.05 310.21,183.30"/>
    </edge>
    <edge id=":12_6" function="internal">
        <lane id=":12_6_0" index="0" speed="13.89" length="8.28" shape="310.21,183.30 310.81,182.30 313.58,180.66 317.45,180.14"/>
    </edge>
    <edge id=":12_2" function="internal">
        <lane id=":12_2_0" index="0" speed="13.89" length="9.03" shape="317.42,183.34 314.96,183.67 313.21,184.71 312.16,186.46 311.82,188.91"/>
    </edge>
    <edge id=":12_3" function="internal">
        <lane id=":12_3_0" index="0" speed="13.89" length="14.21" shape="317.42,183.34 313.56,182.76 310.81,181.09 309.15,178.34 308.61,174.50"/>
    </edge>
    <edge id=":12_4" function="internal">
        <lane id=":12_4_0" index="0" speed="13.89" length="9.08" shape="311.81,174.50 312.16,176.95 313.21,178.71 314.98,179.77 317.45,180.14"/>
    </edge>
    <edge id=":12_5" function="internal">
        <lane id=":12_5_0" index="0" speed="13.89" length="14.41" shape="311.81,174.50 311.82,188.91"/>
    </edge>
    <edge id=":13_0" function="internal">
        <lane id=":13_0_0" index="0" speed="13.89" length="7.81" shape="308.82,-48.32 309.12,-50.44 310.04,-51.95 311.56,-52.84 313.68,-53.11"/>
    </edge>
    <edge id=":13_1" function="internal">
        <lane id=":13_1_0" index="0" speed="13.89" length="2.60" shape="313.64,-49.92 312.93,-49.82 312.42,-49.53 312.12,-49.02 312.02,-48.32"/>
    </edge>
    <edge id=":14_0" function="internal">
        <lane id=":14_0_0" index="0" speed="13.89" length="14.40" shape="379.15,71.76 379.12,57.35"/>
    </edge>
    <edge id=":14_1" function="internal">
        <lane id=":14_1_0" index="0" speed="13.89" length="5.93" shape="379.15,71.76 379.69,67.91 380.74,66.15"/>
    </edge>
    <edge id=":14_6" function="internal">
        <lane id=":14_6_0" index="0" speed="13.89" length="8.27" shape="380.74,66.15 381.33,65.15 384.08,63.49 387.93,62.93"/>
    </edge>
    <edge id=":14_2" function="internal">
        <lane id=":14_2_0" index="0" speed="13.89" length="9.05" shape="387.95,66.13 385.49,66.49 383.74,67.54 382.69,69.30 382.35,71.75"/>
    </edge>
    <edge id=":14_3" function="internal">
        <lane id=":14_3_0" index="0" speed="13.89" length="14.20" shape="387.95,66.13 384.09,65.59 381.33,63.95 379.68,61.21 379.12,57.35"/>
    </edge>
    <edge id=":14_4" function="internal">
        <lane id=":14_4_0" index="0" speed="13.89" length="9.03" shape="382.32,57.35 382.67,59.80 383.73,61.54 385.48,62.59 387.93,62.93"/>
    </edge>
    <edge id=":14_5" function="internal">
        <lane id=":14_5_0" index="0" speed="13.89" length="14.40" shape="382.32,57.35 382.35,71.75"/>
    </edge>
    <edge id=":15_0" function="internal">
        <lane id=":15_0_0" index="0" speed="13.89" length="9.09" shape="462.29,71.42 461.91,68.95 460.84,67.19 459.07,66.14 456.61,65.80"/>
    </edge>
    <edge id=":15_1" function="internal">
        <lane id=":15_1_0" index="0" speed="13.89" length="14.45" shape="462.29,71.42 462.17,56.98"/>
    </edge>
    <edge id=":15_2" function="internal">
        <lane id=":15_2_0" index="0" speed="13.89" length="5.96" shape="462.29,71.42 462.80,67.55 463.84,65.78"/>
    </edge>
    <edge id=":15_12" function="internal">
        <lane id=":15_12_0" index="0" speed="13.89" length="8.27" shape="463.84,65.78 464.43,64.78 467.18,63.12 471.04,62.57"/>
    </edge>
    <edge id=":15_3" function="internal">
        <lane id=":15_3_0" index="0" speed="13.89" length="9.03" shape="471.04,65.77 468.59,66.12 466.85,67.17 465.81,68.93 465.49,71.39"/>
    </edge>
    <edge id=":15_4" function="internal">
        <lane id=":15_4_0" index="0" speed="13.89" length="14.43" shape="471.04,65.77 456.61,65.80"/>
    </edge>
    <edge id=":15_5" function="internal">
        <lane id=":15_5_0" index="0" speed="13.89" length="5.93" shape="471.04,65.77 467.18,65.22 465.44,64.18"/>
    </edge>
    <edge id=":15_13" function="internal">
        <lane id=":15_13_0" index="0" speed="13.89" length="8.30" shape="465.44,64.18 464.41,63.57 462.74,60.82 462.17,56.98"/>
    </edge>
    <edge id=":15_6" function="internal">
        <lane id=":15_6_0" index="0" speed="13.89" length="9.09" shape="465.37,56.96 465.73,59.41 466.80,61.17 468.57,62.22 471.04,62.57"/>
    </edge>
    <edge id=":15_7" function="internal">
        <lane id=":15_7_0" index="0" speed="13.89" length="14.43" shape="465.37,56.96 465.49,71.39"/>
    </edge>
    <edge id=":15_8" function="internal">
        <lane id=":15_8_0" index="0" speed="13.89" length="5.90" shape="465.37,56.96 464.84,60.81 463.81,62.54"/>
    </edge>
    <edge id=":15_14" function="internal">
        <lane id=":15_14_0" index="0" speed="13.89" length="8.29" shape="463.81,62.54 463.20,63.57 460.46,65.24 456.61,65.80"/>
    </edge>
    <edge id=":15_9" function="internal">
        <lane id=":15_9_0" index="0" speed="13.89" length="9.03" shape="456.60,62.60 459.05,62.24 460.79,61.18 461.83,59.43 462.17,56.98"/>
    </edge>
    <edge id=":15_10" function="internal">
        <lane id=":15_10_0" index="0" speed="13.89" length="14.44" shape="456.60,62.60 471.04,62.57"/>
    </edge>
    <edge id=":15_11" function="internal">
        <lane id=":15_11_0" index="0" speed="13.89" length="5.95" shape="456.60,62.60 460.45,63.14 462.22,64.19"/>
    </edge>
    <edge id=":15_15" function="internal">
        <lane id=":15_15_0" index="0" speed="13.89" length="8.28" shape="462.22,64.19 463.22,64.78 464.90,67.53 465.49,71.39"/>
    </edge>
    <edge id=":16_0" function="internal">
        <lane id=":16_0_0" index="0" speed="13.89" length="9.19" shape="543.45,190.35 543.04,187.87 541.94,186.09 540.16,185.02 537.69,184.66"/>
    </edge>
    <edge id=":16_1" function="internal">
        <lane id=":16_1_0" index="0" speed="13.89" length="14.52" shape="543.45,190.35 543.31,175.84"/>
    </edge>
    <edge id=":16_2" function="internal">
        <lane id=":16_2_0" index="0" speed="13.89" length="6.06" shape="543.45,190.35 543.92,186.47 544.99,184.60"/>
    </edge>
    <edge id=":16_12" function="internal">
        <lane id=":16_12_0" index="0" speed="13.89" length="8.17" shape="544.99,184.60 545.52,183.69 548.25,182.00 552.11,181.41"/>
    </edge>
    <edge id=":16_3" function="internal">
        <lane id=":16_3_0" index="0" speed="13.89" length="9.03" shape="552.14,184.61 549.69,184.99 547.96,186.06 546.94,187.82 546.65,190.28"/>
    </edge>
    <edge id=":16_4" function="internal">
        <lane id=":16_4_0" index="0" speed="13.89" length="14.46" shape="552.14,184.61 537.69,184.66"/>
    </edge>
    <edge id=":16_5" function="internal">
        <lane id=":16_5_0" index="0" speed="13.89" length="6.00" shape="552.14,184.61 548.27,184.10 546.47,183.03"/>
    </edge>
    <edge id=":16_13" function="internal">
        <lane id=":16_13_0" index="0" speed="13.89" length="8.24" shape="546.47,183.03 545.51,182.46 543.85,179.71 543.31,175.84"/>
    </edge>
    <edge id=":16_6" function="internal">
        <lane id=":16_6_0" index="0" speed="13.89" length="9.03" shape="546.51,175.85 546.85,178.30 547.90,180.05 549.66,181.08 552.11,181.41"/>
    </edge>
    <edge id=":16_7" function="internal">
        <lane id=":16_7_0" index="0" speed="13.89" length="14.44" shape="546.51,175.85 546.65,190.28"/>
    </edge>
    <edge id=":16_8" function="internal">
        <lane id=":16_8_0" index="0" speed="13.89" length="5.82" shape="546.51,175.85 545.95,179.71 544.96,181.35"/>
    </edge>
    <edge id=":16_14" function="internal">
        <lane id=":16_14_0" index="0" speed="13.89" length="8.40" shape="544.96,181.35 544.29,182.47 541.54,184.12 537.69,184.66"/>
    </edge>
    <edge id=":16_9" function="internal">
        <lane id=":16_9_0" index="0" speed="13.89" length="9.06" shape="537.69,181.46 540.14,181.11 541.90,180.06 542.95,178.30 543.31,175.84"/>
    </edge>
    <edge id=":16_10" function="internal">
        <lane id=":16_10_0" index="0" speed="13.89" length="14.42" shape="537.69,181.46 552.11,181.41"/>
    </edge>
    <edge id=":16_11" function="internal">
        <lane id=":16_11_0" index="0" speed="13.89" length="5.88" shape="537.69,181.46 541.54,182.02 543.25,183.04"/>
    </edge>
    <edge id=":16_15" function="internal">
        <lane id=":16_15_0" index="0" speed="13.89" length="8.38" shape="543.25,183.04 544.31,183.68 546.01,186.43 546.65,190.28"/>
    </edge>
    <edge id=":17_0" function="internal">
        <lane id=":17_0_0" index="0" speed="13.89" length="15.79" shape="546.55,123.31 546.60,139.10"/>
    </edge>
    <edge id=":17_1" function="internal">
        <lane id=":17_1_0" index="0" speed="13.89" length="5.60" shape="546.55,123.31 546.02,126.58 544.97,128.62"/>
    </edge>
    <edge id=":17_6" function="internal">
        <lane id=":17_6_0" index="0" speed="13.89" length="10.53" shape="544.97,128.62 544.36,129.78 541.55,132.92 537.60,136.00"/>
    </edge>
    <edge id=":17_2" function="internal">
        <lane id=":17_2_0" index="0" speed="13.89" length="12.97" shape="535.82,133.34 539.14,130.80 541.50,128.29 542.90,125.81 543.35,123.36"/>
    </edge>
    <edge id=":17_3" function="internal">
        <lane id=":17_3_0" index="0" speed="13.89" length="17.35" shape="535.82,133.34 540.55,130.97 543.92,131.14 545.94,133.85 546.60,139.10"/>
    </edge>
    <edge id=":17_4" function="internal">
        <lane id=":17_4_0" index="0" speed="13.89" length="9.33" shape="543.40,139.10 543.05,136.27 541.96,134.81 540.15,134.72 537.60,136.00"/>
    </edge>
    <edge id=":17_5" function="internal">
        <lane id=":17_5_0" index="0" speed="13.89" length="15.74" shape="543.40,139.10 543.35,123.36"/>
    </edge>
    <edge id=":18_0" function="internal">
        <lane id=":18_0_0" index="0" speed="13.89" length="16.40" shape="637.12,173.53 638.46,177.27 639.53,181.37 640.24,185.54 640.48,189.50"/>
    </edge>
    <edge id=":18_1" function="internal">
        <lane id=":18_1_0" index="0" speed="13.89" length="7.13" shape="637.12,173.53 638.27,178.02 637.70,180.45"/>
    </edge>
    <edge id=":18_6" function="internal">
        <lane id=":18_6_0" index="0" speed="13.89" length="8.78" shape="637.70,180.45 637.51,181.25 634.84,183.20 630.25,183.89"/>
    </edge>
    <edge id=":18_2" function="internal">
        <lane id=":18_2_0" index="0" speed="13.89" length="9.13" shape="630.22,180.69 632.85,180.30 634.39,179.18 634.82,177.32 634.16,174.75"/>
    </edge>
    <edge id=":18_3" function="internal">
        <lane id=":18_3_0" index="0" speed="13.89" length="15.46" shape="630.22,180.69 634.75,181.21 637.96,182.84 639.87,185.61 640.48,189.50"/>
    </edge>
    <edge id=":18_4" function="internal">
        <lane id=":18_4_0" index="0" speed="13.89" length="10.23" shape="637.28,189.46 636.86,187.00 635.55,185.25 633.35,184.21 630.25,183.89"/>
    </edge>
    <edge id=":18_5" function="internal">
        <lane id=":18_5_0" index="0" speed="13.89" length="15.13" shape="637.28,189.46 637.08,185.70 636.45,181.96 635.46,178.29 634.16,174.75"/>
    </edge>
    <edge id=":19_0" function="internal">
        <lane id=":19_0_0" index="0" speed="13.89" length="9.07" shape="542.58,71.31 542.20,68.87 541.12,67.13 539.34,66.08 536.87,65.73"/>
    </edge>
    <edge id=":19_1" function="internal">
        <lane id=":19_1_0" index="0" speed="13.89" length="14.38" shape="542.58,71.31 542.46,56.93"/>
    </edge>
    <edge id=":19_2" function="internal">
        <lane id=":19_2_0" index="0" speed="13.89" length="14.34" shape="545.66,56.92 545.78,71.26"/>
    </edge>
    <edge id=":19_3" function="internal">
        <lane id=":19_3_0" index="0" speed="13.89" length="5.87" shape="545.66,56.92 545.12,60.77 544.11,62.47"/>
    </edge>
    <edge id=":19_6" function="internal">
        <lane id=":19_6_0" index="0" speed="13.89" length="8.33" shape="544.11,62.47 543.48,63.53 540.73,65.18 536.87,65.73"/>
    </edge>
    <edge id=":19_4" function="internal">
        <lane id=":19_4_0" index="0" speed="13.89" length="9.03" shape="536.87,62.53 539.32,62.18 541.07,61.13 542.12,59.38 542.46,56.93"/>
    </edge>
    <edge id=":19_5" function="internal">
        <lane id=":19_5_0" index="0" speed="13.89" length="14.18" shape="536.87,62.53 540.72,63.08 543.49,64.71 545.18,67.44 545.78,71.26"/>
    </edge>
    <edge id=":2_0" function="internal">
        <lane id=":2_0_0" index="0" speed="13.89" length="7.85" shape="549.28,330.30 549.04,332.45 548.17,333.98 546.67,334.92 544.54,335.24"/>
    </edge>
    <edge id=":2_1" function="internal">
        <lane id=":2_1_0" index="0" speed="13.89" length="2.62" shape="544.50,332.04 545.21,331.94 545.71,331.62 546.00,331.11 546.09,330.40"/>
    </edge>
    <edge id=":20_0" function="internal">
        <lane id=":20_0_0" index="0" speed="13.89" length="19.30" shape="542.19,-29.30 541.59,-36.47 539.85,-40.68 536.95,-41.94 532.91,-40.23"/>
    </edge>
    <edge id=":20_1" function="internal">
        <lane id=":20_1_0" index="0" speed="13.89" length="25.54" shape="542.19,-29.30 541.38,-37.50 538.98,-43.36 535.02,-46.88 529.48,-48.05"/>
    </edge>
    <edge id=":20_2" function="internal">
        <lane id=":20_2_0" index="0" speed="13.89" length="15.10" shape="542.19,-29.30 543.54,-32.99 546.69,-34.76 550.28,-34.34 552.94,-31.44"/>
    </edge>
    <edge id=":20_3" function="internal">
        <lane id=":20_3_0" index="0" speed="13.89" length="13.05" shape="549.98,-30.22 547.96,-34.39 546.52,-35.62 545.67,-33.93 545.39,-29.31"/>
    </edge>
    <edge id=":20_4" function="internal">
        <lane id=":20_4_0" index="0" speed="13.89" length="23.43" shape="549.98,-30.22 546.30,-37.22 542.23,-41.21 537.77,-42.22 532.91,-40.23"/>
    </edge>
    <edge id=":20_5" function="internal">
        <lane id=":20_5_0" index="0" speed="13.89" length="28.86" shape="549.98,-30.22 545.95,-38.02 541.19,-43.59 535.70,-46.94 529.48,-48.05"/>
    </edge>
    <edge id=":20_6" function="internal">
        <lane id=":20_6_0" index="0" speed="13.89" length="32.65" shape="529.48,-51.25 536.69,-50.01 543.01,-46.30 548.42,-40.11 552.94,-31.44"/>
    </edge>
    <edge id=":20_7" function="internal">
        <lane id=":20_7_0" index="0" speed="13.89" length="30.66" shape="529.48,-51.25 536.41,-49.88 541.38,-45.76 544.37,-38.91 545.39,-29.31"/>
    </edge>
    <edge id=":20_8" function="internal">
        <lane id=":20_8_0" index="0" speed="13.89" length="22.43" shape="529.48,-51.25 536.96,-50.56 540.03,-48.49 538.68,-45.05 532.91,-40.23"/>
    </edge>
    <edge id=":20_9" function="internal">
        <lane id=":20_9_0" index="0" speed="13.89" length="10.56" shape="531.09,-42.86 533.81,-45.13 534.44,-46.75 533.00,-47.73 529.48,-48.05"/>
    </edge>
    <edge id=":20_10" function="internal">
        <lane id=":20_10_0" index="0" speed="13.89" length="30.06" shape="531.09,-42.86 538.47,-46.10 544.24,-44.79 548.90,-39.65 552.94,-31.44"/>
    </edge>
    <edge id=":20_11" function="internal">
        <lane id=":20_11_0" index="0" speed="13.89" length="25.38" shape="531.09,-42.86 537.12,-44.91 541.61,-42.52 544.41,-36.92 545.39,-29.31"/>
    </edge>
    <edge id=":21_0" function="internal">
        <lane id=":21_0_0" index="0" speed="13.89" length="9.05" shape="461.89,-42.46 461.55,-44.92 460.50,-46.68 458.76,-47.75 456.32,-48.13"/>
    </edge>
    <edge id=":21_1" function="internal">
        <lane id=":21_1_0" index="0" speed="13.89" length="14.18" shape="461.89,-42.46 462.45,-46.30 464.10,-49.05 466.85,-50.70 470.69,-51.25"/>
    </edge>
    <edge id=":21_2" function="internal">
        <lane id=":21_2_0" index="0" speed="13.89" length="9.03" shape="470.69,-48.05 468.25,-47.70 466.50,-46.65 465.45,-44.90 465.09,-42.45"/>
    </edge>
    <edge id=":21_3" function="internal">
        <lane id=":21_3_0" index="0" speed="13.89" length="14.38" shape="470.69,-48.05 456.32,-48.13"/>
    </edge>
    <edge id=":21_4" function="internal">
        <lane id=":21_4_0" index="0" speed="13.89" length="14.34" shape="456.36,-51.33 470.69,-51.25"/>
    </edge>
    <edge id=":21_5" function="internal">
        <lane id=":21_5_0" index="0" speed="13.89" length="5.86" shape="456.36,-51.33 460.18,-50.74 461.87,-49.70"/>
    </edge>
    <edge id=":21_6" function="internal">
        <lane id=":21_6_0" index="0" speed="13.89" length="8.31" shape="461.87,-49.70 462.91,-49.06 464.55,-46.30 465.09,-42.45"/>
    </edge>
    <edge id=":22_0" function="internal">
        <lane id=":22_0_0" index="0" speed="13.89" length="9.04" shape="461.90,13.04 461.54,10.59 460.48,8.85 458.72,7.80 456.26,7.45"/>
    </edge>
    <edge id=":22_1" function="internal">
        <lane id=":22_1_0" index="0" speed="13.89" length="17.30" shape="461.90,13.04 461.87,-4.26"/>
    </edge>
    <edge id=":22_2" function="internal">
        <lane id=":22_2_0" index="0" speed="13.89" length="6.46" shape="461.90,13.04 462.66,9.56 463.97,6.98"/>
    </edge>
    <edge id=":22_12" function="internal">
        <lane id=":22_12_0" index="0" speed="13.89" length="10.80" shape="463.97,6.98 464.69,5.58 467.56,1.76 470.86,-1.21"/>
    </edge>
    <edge id=":22_3" function="internal">
        <lane id=":22_3_0" index="0" speed="13.89" length="14.41" shape="472.68,1.42 469.35,4.12 466.98,6.95 465.56,9.92 465.10,13.02"/>
    </edge>
    <edge id=":22_4" function="internal">
        <lane id=":22_4_0" index="0" speed="13.89" length="17.68" shape="472.68,1.42 469.09,3.56 464.81,5.50 460.36,6.91 456.26,7.45"/>
    </edge>
    <edge id=":22_5" function="internal">
        <lane id=":22_5_0" index="0" speed="13.89" length="8.14" shape="472.68,1.42 467.95,3.87 465.14,3.76"/>
    </edge>
    <edge id=":22_13" function="internal">
        <lane id=":22_13_0" index="0" speed="13.89" length="9.29" shape="465.14,3.76 464.57,3.74 462.54,1.03 461.87,-4.26"/>
    </edge>
    <edge id=":22_6" function="internal">
        <lane id=":22_6_0" index="0" speed="13.89" length="9.34" shape="465.07,-4.26 465.43,-1.42 466.51,0.03 468.33,0.10 470.86,-1.21"/>
    </edge>
    <edge id=":22_7" function="internal">
        <lane id=":22_7_0" index="0" speed="13.89" length="17.28" shape="465.07,-4.26 465.10,13.02"/>
    </edge>
    <edge id=":22_8" function="internal">
        <lane id=":22_8_0" index="0" speed="13.89" length="7.66" shape="465.07,-4.26 464.31,-0.37 462.59,2.90"/>
    </edge>
    <edge id=":22_14" function="internal">
        <lane id=":22_14_0" index="0" speed="13.89" length="8.05" shape="462.59,2.90 462.31,3.43 459.49,6.31 456.26,7.45"/>
    </edge>
    <edge id=":22_9" function="internal">
        <lane id=":22_9_0" index="0" speed="13.89" length="11.47" shape="456.26,4.25 458.71,3.72 460.46,2.12 461.51,-0.54 461.87,-4.26"/>
    </edge>
    <edge id=":22_10" function="internal">
        <lane id=":22_10_0" index="0" speed="13.89" length="15.80" shape="456.26,4.25 460.07,3.80 463.90,2.58 467.55,0.84 470.86,-1.21"/>
    </edge>
    <edge id=":22_11" function="internal">
        <lane id=":22_11_0" index="0" speed="13.89" length="4.54" shape="456.26,4.25 460.11,4.80 460.67,5.13"/>
    </edge>
    <edge id=":22_15" function="internal">
        <lane id=":22_15_0" index="0" speed="13.89" length="9.65" shape="460.67,5.13 462.87,6.44 464.53,9.18 465.10,13.02"/>
    </edge>
    <edge id=":23_0" function="internal">
        <lane id=":23_0_0" index="0" speed="13.89" length="14.39" shape="379.06,13.06 379.02,-1.33"/>
    </edge>
    <edge id=":23_1" function="internal">
        <lane id=":23_1_0" index="0" speed="13.89" length="5.92" shape="379.06,13.06 379.60,9.20 380.65,7.47"/>
    </edge>
    <edge id=":23_6" function="internal">
        <lane id=":23_6_0" index="0" speed="13.89" length="8.28" shape="380.65,7.47 381.25,6.45 384.00,4.80 387.85,4.25"/>
    </edge>
    <edge id=":23_2" function="internal">
        <lane id=":23_2_0" index="0" speed="13.89" length="9.03" shape="387.85,7.45 385.40,7.80 383.65,8.85 382.61,10.60 382.26,13.05"/>
    </edge>
    <edge id=":23_3" function="internal">
        <lane id=":23_3_0" index="0" speed="13.89" length="14.19" shape="387.85,7.45 384.00,6.90 381.25,5.25 379.59,2.51 379.02,-1.33"/>
    </edge>
    <edge id=":23_4" function="internal">
        <lane id=":23_4_0" index="0" speed="13.89" length="9.04" shape="382.22,-1.34 382.58,1.10 383.64,2.85 385.40,3.90 387.85,4.25"/>
    </edge>