<configuration xmlns:xsi="http://www.w3.org/2001/XMLSchema-instance" xsi:noNamespaceSchemaLocation="http://sumo.dlr.de/xsd/sumoConfiguration.xsd">

    <input>
        <net-file value="test_origin.net.xml" />
        <route-files value="test_origin.rou.xml, testorigin.rou.xml" />
        
    </input>
    <time>
        <begin value="0.0" />
        <step-length value="1" />
        <end value="3600.0" />
    </time>
    <processing>
        <ignore-route-errors value="true" />
        
    </processing>


</configuration>