<?xml version="1.0" encoding="UTF-8"?>

<!-- generated on Mon Sep  7 07:41:04 2020 by Eclipse SUMO od2trips Version 1.6.0
<configuration xmlns:xsi="http://www.w3.org/2001/XMLSchema-instance" xsi:noNamespaceSchemaLocation="http://sumo.dlr.de/xsd/od2tripsConfiguration.xsd">

    <input>
        <taz-files value="osm.829.net.xml,taz.add.xml"/>
        <od-matrix-files value="OD_file.od"/>
    </input>

    <output>
        <output-file value="od1.trips.xml"/>
        <flow-output value="flow_day1.xml"/>
    </output>

    <time>
        <begin value="0"/>
        <end value="3600"/>
    </time>

    <processing>
        <vtype value="passenger"/>
    </processing>

    <report>
        <xml-validation value="never"/>
    </report>

</configuration>
-->

<routes xmlns:xsi="http://www.w3.org/2001/XMLSchema-instance" xsi:noNamespaceSchemaLocation="http://sumo.dlr.de/xsd/routes_file.xsd">
    <flow id="0" begin="0.00" end="3600.00" number="59" type="passenger" fromTaz="1" toTaz="1" departLane="free" departSpeed="max"/>
    <flow id="1" begin="0.00" end="3600.00" number="29" type="passenger" fromTaz="1" toTaz="10" departLane="free" departSpeed="max"/>
    <flow id="2" begin="0.00" end="3600.00" number="19" type="passenger" fromTaz="1" toTaz="12" departLane="free" departSpeed="max"/>
    <flow id="3" begin="0.00" end="3600.00" number="41" type="passenger" fromTaz="1" toTaz="13" departLane="free" departSpeed="max"/>
    <flow id="4" begin="0.00" end="3600.00" number="55" type="passenger" fromTaz="1" toTaz="14" departLane="free" departSpeed="max"/>
    <flow id="5" begin="0.00" end="3600.00" number="99" type="passenger" fromTaz="1" toTaz="15" departLane="free" departSpeed="max"/>
    <flow id="6" begin="0.00" end="3600.00" number="64" type="passenger" fromTaz="1" toTaz="2" departLane="free" departSpeed="max"/>
    <flow id="7" begin="0.00" end="3600.00" number="28" type="passenger" fromTaz="1" toTaz="6" departLane="free" departSpeed="max"/>
    <flow id="8" begin="0.00" end="3600.00" number="35" type="passenger" fromTaz="1" toTaz="7" departLane="free" departSpeed="max"/>
    <flow id="9" begin="0.00" end="3600.00" number="37" type="passenger" fromTaz="1" toTaz="8" departLane="free" departSpeed="max"/>
    <flow id="10" begin="0.00" end="3600.00" number="49" type="passenger" fromTaz="1" toTaz="9" departLane="free" departSpeed="max"/>
    <flow id="11" begin="0.00" end="3600.00" number="66" type="passenger" fromTaz="10" toTaz="1" departLane="free" departSpeed="max"/>
    <flow id="12" begin="0.00" end="3600.00" number="66" type="passenger" fromTaz="10" toTaz="10" departLane="free" departSpeed="max"/>
    <flow id="13" begin="0.00" end="3600.00" number="50" type="passenger" fromTaz="10" toTaz="12" departLane="free" departSpeed="max"/>
    <flow id="14" begin="0.00" end="3600.00" number="56" type="passenger" fromTaz="10" toTaz="13" departLane="free" departSpeed="max"/>
    <flow id="15" begin="0.00" end="3600.00" number="90" type="passenger" fromTaz="10" toTaz="14" departLane="free" departSpeed="max"/>
    <flow id="16" begin="0.00" end="3600.00" number="174" type="passenger" fromTaz="10" toTaz="15" departLane="free" departSpeed="max"/>
    <flow id="17" begin="0.00" end="3600.00" number="82" type="passenger" fromTaz="10" toTaz="2" departLane="free" departSpeed="max"/>
    <flow id="18" begin="0.00" end="3600.00" number="38" type="passenger" fromTaz="10" toTaz="6" departLane="free" departSpeed="max"/>
    <flow id="19" begin="0.00" end="3600.00" number="42" type="passenger" fromTaz="10" toTaz="7" departLane="free" departSpeed="max"/>
    <flow id="20" begin="0.00" end="3600.00" number="68" type="passenger" fromTaz="10" toTaz="8" departLane="free" departSpeed="max"/>
    <flow id="21" begin="0.00" end="3600.00" number="82" type="passenger" fromTaz="10" toTaz="9" departLane="free" departSpeed="max"/>
    <flow id="22" begin="0.00" end="3600.00" number="16" type="passenger" fromTaz="12" toTaz="1" departLane="free" departSpeed="max"/>
    <flow id="23" begin="0.00" end="3600.00" number="19" type="passenger" fromTaz="12" toTaz="10" departLane="free" departSpeed="max"/>
    <flow id="24" begin="0.00" end="3600.00" number="11" type="passenger" fromTaz="12" toTaz="12" departLane="free" departSpeed="max"/>
    <flow id="25" begin="0.00" end="3600.00" number="13" type="passenger" fromTaz="12" toTaz="13" departLane="free" departSpeed="max"/>
    <flow id="26" begin="0.00" end="3600.00" number="33" type="passenger" fromTaz="12" toTaz="14" departLane="free" departSpeed="max"/>
    <flow id="27" begin="0.00" end="3600.00" number="45" type="passenger" fromTaz="12" toTaz="15" departLane="free" departSpeed="max"/>
    <flow id="28" begin="0.00" end="3600.00" number="21" type="passenger" fromTaz="12" toTaz="2" departLane="free" departSpeed="max"/>
    <flow id="29" begin="0.00" end="3600.00" number="10" type="passenger" fromTaz="12" toTaz="6" departLane="free" departSpeed="max"/>
    <flow id="30" begin="0.00" end="3600.00" number="11" type="passenger" fromTaz="12" toTaz="7" departLane="free" departSpeed="max"/>
    <flow id="31" begin="0.00" end="3600.00" number="17" type="passenger" fromTaz="12" toTaz="8" departLane="free" departSpeed="max"/>
    <flow id="32" begin="0.00" end="3600.00" number="26" type="passenger" fromTaz="12" toTaz="9" departLane="free" departSpeed="max"/>
    <flow id="33" begin="0.00" end="3600.00" number="78" type="passenger" fromTaz="13" toTaz="1" departLane="free" departSpeed="max"/>
    <flow id="34" begin="0.00" end="3600.00" number="54" type="passenger" fromTaz="13" toTaz="10" departLane="free" departSpeed="max"/>
    <flow id="35" begin="0.00" end="3600.00" number="30" type="passenger" fromTaz="13" toTaz="12" departLane="free" departSpeed="max"/>
    <flow id="36" begin="0.00" end="3600.00" number="60" type="passenger" fromTaz="13" toTaz="13" departLane="free" departSpeed="max"/>
    <flow id="37" begin="0.00" end="3600.00" number="98" type="passenger" fromTaz="13" toTaz="14" departLane="free" departSpeed="max"/>
    <flow id="38" begin="0.00" end="3600.00" number="138" type="passenger" fromTaz="13" toTaz="15" departLane="free" departSpeed="max"/>
    <flow id="39" begin="0.00" end="3600.00" number="83" type="passenger" fromTaz="13" toTaz="2" departLane="free" departSpeed="max"/>
    <flow id="40" begin="0.00" end="3600.00" number="32" type="passenger" fromTaz="13" toTaz="6" departLane="free" departSpeed="max"/>
    <flow id="41" begin="0.00" end="3600.00" number="37" type="passenger" fromTaz="13" toTaz="7" departLane="free" departSpeed="max"/>
    <flow id="42" begin="0.00" end="3600.00" number="53" type="passenger" fromTaz="13" toTaz="8" departLane="free" departSpeed="max"/>
    <flow id="43" begin="0.00" end="3600.00" number="65" type="passenger" fromTaz="13" toTaz="9" departLane="free" departSpeed="max"/>
    <flow id="44" begin="0.00" end="3600.00" number="61" type="passenger" fromTaz="14" toTaz="1" departLane="free" departSpeed="max"/>
    <flow id="45" begin="0.00" end="3600.00" number="50" type="passenger" fromTaz="14" toTaz="10" departLane="free" departSpeed="max"/>
    <flow id="46" begin="0.00" end="3600.00" number="41" type="passenger" fromTaz="14" toTaz="12" departLane="free" departSpeed="max"/>
    <flow id="47" begin="0.00" end="3600.00" number="59" type="passenger" fromTaz="14" toTaz="13" departLane="free" departSpeed="max"/>
    <flow id="48" begin="0.00" end="3600.00" number="128" type="passenger" fromTaz="14" toTaz="14" departLane="free" departSpeed="max"/>
    <flow id="49" begin="0.00" end="3600.00" number="189" type="passenger" fromTaz="14" toTaz="15" departLane="free" departSpeed="max"/>
    <flow id="50" begin="0.00" end="3600.00" number="72" type="passenger" fromTaz="14" toTaz="2" departLane="free" departSpeed="max"/>
    <flow id="51" begin="0.00" end="3600.00" number="36" type="passenger" fromTaz="14" toTaz="6" departLane="free" departSpeed="max"/>
    <flow id="52" begin="0.00" end="3600.00" number="41" type="passenger" fromTaz="14" toTaz="7" departLane="free" departSpeed="max"/>
    <flow id="53" begin="0.00" end="3600.00" number="62" type="passenger" fromTaz="14" toTaz="8" departLane="free" departSpeed="max"/>
    <flow id="54" begin="0.00" end="3600.00" number="61" type="passenger" fromTaz="14" toTaz="9" departLane="free" departSpeed="max"/>
    <flow id="55" begin="0.00" end="3600.00" number="90" type="passenger" fromTaz="15" toTaz="1" departLane="free" departSpeed="max"/>
    <flow id="56" begin="0.00" end="3600.00" number="73" type="passenger" fromTaz="15" toTaz="10" departLane="free" departSpeed="max"/>
    <flow id="57" begin="0.00" end="3600.00" number="53" type="passenger" fromTaz="15" toTaz="12" departLane="free" departSpeed="max"/>
    <flow id="58" begin="0.00" end="3600.00" number="73" type="passenger" fromTaz="15" toTaz="13" departLane="free" departSpeed="max"/>
    <flow id="59" begin="0.00" end="3600.00" number="167" type="passenger" fromTaz="15" toTaz="14" departLane="free" departSpeed="max"/>
    <flow id="60" begin="0.00" end="3600.00" number="292" type="passenger" fromTaz="15" toTaz="15" departLane="free" departSpeed="max"/>
    <flow id="61" begin="0.00" end="3600.00" number="110" type="passenger" fromTaz="15" toTaz="2" departLane="free" departSpeed="max"/>
    <flow id="62" begin="0.00" end="3600.00" number="77" type="passenger" fromTaz="15" toTaz="6" departLane="free" departSpeed="max"/>
    <flow id="63" begin="0.00" end="3600.00" number="80" type="passenger" fromTaz="15" toTaz="7" departLane="free" departSpeed="max"/>
    <flow id="64" begin="0.00" end="3600.00" number="113" type="passenger" fromTaz="15" toTaz="8" departLane="free" departSpeed="max"/>
    <flow id="65" begin="0.00" end="3600.00" number="96" type="passenger" fromTaz="15" toTaz="9" departLane="free" departSpeed="max"/>
    <flow id="66" begin="0.00" end="3600.00" number="171" type="passenger" fromTaz="2" toTaz="1" departLane="free" departSpeed="max"/>
    <flow id="67" begin="0.00" end="3600.00" number="99" type="passenger" fromTaz="2" toTaz="10" departLane="free" departSpeed="max"/>
    <flow id="68" begin="0.00" end="3600.00" number="66" type="passenger" fromTaz="2" toTaz="12" departLane="free" departSpeed="max"/>
    <flow id="69" begin="0.00" end="3600.00" number="119" type="passenger" fromTaz="2" toTaz="13" departLane="free" departSpeed="max"/>
    <flow id="70" begin="0.00" end="3600.00" number="172" type="passenger" fromTaz="2" toTaz="14" departLane="free" departSpeed="max"/>
    <flow id="71" begin="0.00" end="3600.00" number="293" type="passenger" fromTaz="2" toTaz="15" departLane="free" departSpeed="max"/>
    <flow id="72" begin="0.00" end="3600.00" number="192" type="passenger" fromTaz="2" toTaz="2" departLane="free" departSpeed="max"/>
    <flow id="73" begin="0.00" end="3600.00" number="69" type="passenger" fromTaz="2" toTaz="6" departLane="free" departSpeed="max"/>
    <flow id="74" begin="0.00" end="3600.00" number="84" type="passenger" fromTaz="2" toTaz="7" departLane="free" departSpeed="max"/>
    <flow id="75" begin="0.00" end="3600.00" number="112" type="passenger" fromTaz="2" toTaz="8" departLane="free" departSpeed="max"/>
    <flow id="76" begin="0.00" end="3600.00" number="138" type="passenger" fromTaz="2" toTaz="9" departLane="free" departSpeed="max"/>
    <flow id="77" begin="0.00" end="3600.00" number="63" type="passenger" fromTaz="6" toTaz="1" departLane="free" departSpeed="max"/>
    <flow id="78" begin="0.00" end="3600.00" number="45" type="passenger" fromTaz="6" toTaz="10" departLane="free" departSpeed="max"/>
    <flow id="79" begin="0.00" end="3600.00" number="29" type="passenger" fromTaz="6" toTaz="12" departLane="free" departSpeed="max"/>
    <flow id="80" begin="0.00" end="3600.00" number="43" type="passenger" fromTaz="6" toTaz="13" departLane="free" departSpeed="max"/>
    <flow id="81" begin="0.00" end="3600.00" number="87" type="passenger" fromTaz="6" toTaz="14" departLane="free" departSpeed="max"/>
    <flow id="82" begin="0.00" end="3600.00" number="201" type="passenger" fromTaz="6" toTaz="15" departLane="free" departSpeed="max"/>
    <flow id="83" begin="0.00" end="3600.00" number="70" type="passenger" fromTaz="6" toTaz="2" departLane="free" departSpeed="max"/>
    <flow id="84" begin="0.00" end="3600.00" number="47" type="passenger" fromTaz="6" toTaz="6" departLane="free" departSpeed="max"/>
    <flow id="85" begin="0.00" end="3600.00" number="62" type="passenger" fromTaz="6" toTaz="7" departLane="free" departSpeed="max"/>
    <flow id="86" begin="0.00" end="3600.00" number="68" type="passenger" fromTaz="6" toTaz="8" departLane="free" departSpeed="max"/>
    <flow id="87" begin="0.00" end="3600.00" number="60" type="passenger" fromTaz="6" toTaz="9" departLane="free" departSpeed="max"/>
    <flow id="88" begin="0.00" end="3600.00" number="62" type="passenger" fromTaz="7" toTaz="1" departLane="free" departSpeed="max"/>
    <flow id="89" begin="0.00" end="3600.00" number="39" type="passenger" fromTaz="7" toTaz="10" departLane="free" departSpeed="max"/>
    <flow id="90" begin="0.00" end="3600.00" number="25" type="passenger" fromTaz="7" toTaz="12" departLane="free" departSpeed="max"/>
    <flow id="91" begin="0.00" end="3600.00" number="40" type="passenger" fromTaz="7" toTaz="13" departLane="free" departSpeed="max"/>
    <flow id="92" begin="0.00" end="3600.00" number="78" type="passenger" fromTaz="7" toTaz="14" departLane="free" departSpeed="max"/>
    <flow id="93" begin="0.00" end="3600.00" number="157" type="passenger" fromTaz="7" toTaz="15" departLane="free" departSpeed="max"/>
    <flow id="94" begin="0.00" end="3600.00" number="64" type="passenger" fromTaz="7" toTaz="2" departLane="free" departSpeed="max"/>
    <flow id="95" begin="0.00" end="3600.00" number="47" type="passenger" fromTaz="7" toTaz="6" departLane="free" departSpeed="max"/>
    <flow id="96" begin="0.00" end="3600.00" number="48" type="passenger" fromTaz="7" toTaz="7" departLane="free" departSpeed="max"/>
    <flow id="97" begin="0.00" end="3600.00" number="58" type="passenger" fromTaz="7" toTaz="8" departLane="free" departSpeed="max"/>
    <flow id="98" begin="0.00" end="3600.00" number="56" type="passenger" fromTaz="7" toTaz="9" departLane="free" departSpeed="max"/>
    <flow id="99" begin="0.00" end="3600.00" number="64" type="passenger" fromTaz="8" toTaz="1" departLane="free" departSpeed="max"/>
    <flow id="100" begin="0.00" end="3600.00" number="60" type="passenger" fromTaz="8" toTaz="10" departLane="free" departSpeed="max"/>
    <flow id="101" begin="0.00" end="3600.00" number="37" type="passenger" fromTaz="8" toTaz="12" departLane="free" departSpeed="max"/>
    <flow id="102" begin="0.00" end="3600.00" number="49" type="passenger" fromTaz="8" toTaz="13" departLane="free" departSpeed="max"/>
    <flow id="103" begin="0.00" end="3600.00" number="104" type="passenger" fromTaz="8" toTaz="14" departLane="free" departSpeed="max"/>
    <flow id="104" begin="0.00" end="3600.00" number="202" type="passenger" fromTaz="8" toTaz="15" departLane="free" departSpeed="max"/>
    <flow id="105" begin="0.00" end="3600.00" number="84" type="passenger" fromTaz="8" toTaz="2" departLane="free" departSpeed="max"/>
    <flow id="106" begin="0.00" end="3600.00" number="43" type="passenger" fromTaz="8" toTaz="6" departLane="free" departSpeed="max"/>
    <flow id="107" begin="0.00" end="3600.00" number="47" type="passenger" fromTaz="8" toTaz="7" departLane="free" departSpeed="max"/>
    <flow id="108" begin="0.00" end="3600.00" number="75" type="passenger" fromTaz="8" toTaz="8" departLane="free" departSpeed="max"/>
    <flow id="109" begin="0.00" end="3600.00" number="80" type="passenger" fromTaz="8" toTaz="9" departLane="free" departSpeed="max"/>
    <flow id="110" begin="0.00" end="3600.00" number="167" type="passenger" fromTaz="9" toTaz="1" departLane="free" departSpeed="max"/>
    <flow id="111" begin="0.00" end="3600.00" number="167" type="passenger" fromTaz="9" toTaz="10" departLane="free" departSpeed="max"/>
    <flow id="112" begin="0.00" end="3600.00" number="112" type="passenger" fromTaz="9" toTaz="12" departLane="free" departSpeed="max"/>
    <flow id="113" begin="0.00" end="3600.00" number="116" type="passenger" fromTaz="9" toTaz="13" departLane="free" departSpeed="max"/>
    <flow id="114" begin="0.00" end="3600.00" number="194" type="passenger" fromTaz="9" toTaz="14" departLane="free" departSpeed="max"/>
    <flow id="115" begin="0.00" end="3600.00" number="361" type="passenger" fromTaz="9" toTaz="15" departLane="free" departSpeed="max"/>
    <flow id="116" begin="0.00" end="3600.00" number="222" type="passenger" fromTaz="9" toTaz="2" departLane="free" departSpeed="max"/>
    <flow id="117" begin="0.00" end="3600.00" number="81" type="passenger" fromTaz="9" toTaz="6" departLane="free" departSpeed="max"/>
    <flow id="118" begin="0.00" end="3600.00" number="99" type="passenger" fromTaz="9" toTaz="7" departLane="free" departSpeed="max"/>
    <flow id="119" begin="0.00" end="3600.00" number="140" type="passenger" fromTaz="9" toTaz="8" departLane="free" departSpeed="max"/>
    <flow id="120" begin="0.00" end="3600.00" number="183" type="passenger" fromTaz="9" toTaz="9" departLane="free" departSpeed="max"/>
</routes>
