<?xml version="1.0" encoding="UTF-8"?>

<!-- generated on 07/07/20 12:04:40 by Eclipse SUMO polyconvert Version 1.6.0
<configuration xmlns:xsi="http://www.w3.org/2001/XMLSchema-instance" xsi:noNamespaceSchemaLocation="http://sumo.dlr.de/xsd/polyconvertConfiguration.xsd">

    <input>
        <net-file value="qls.net.xml"/>
        <osm-files value="qls.osm"/>
    </input>

    <output>
        <output-file value="poly.xml"/>
    </output>

    <processing>
        <poi-layer-offset value="5"/>
    </processing>

</configuration>
-->

<additional xmlns:xsi="http://www.w3.org/2001/XMLSchema-instance" xsi:noNamespaceSchemaLocation="http://sumo.dlr.de/xsd/additional_file.xsd">
    <location netOffset="-665235.26,-3546591.89" convBoundary="-117.96,-0.00,2825.19,2202.12" origBoundary="118.749161,32.043044,118.780000,32.063314" projParameter="+proj=utm +zone=50 +ellps=WGS84 +datum=WGS84 +units=m +no_defs"/>

    <poly id="100949347" type="building" color="255,230,230" fill="1" layer="-1.00" shape="2336.844870,1849.473622 2356.841298,1841.219171 2368.407844,1844.802921 2375.998341,1859.300057 2372.366717,1872.814085 2353.185983,1880.283465 2342.165036,1879.702923 2331.875469,1858.773752 2336.844870,1849.473622"/>
    <poly id="100950656" type="forest" color="140,196,107" fill="1" layer="-4.00" shape="2373.986402,1346.723720 2377.931270,1319.918314 2374.789943,1318.546962 2371.524300,1313.824482 2369.413973,1307.191404 2337.837414,1303.400545 2332.101398,1340.922403 2373.986402,1346.723720"/>
    <poly id="100950657" type="building" color="255,230,230" fill="1" layer="-1.00" shape="2371.995889,1283.435418 2370.817700,1297.644100 2339.296771,1295.062928 2340.465474,1280.854089 2371.995889,1283.435418"/>
    <poly id="100950659" type="building" color="255,230,230" fill="1" layer="-1.00" shape="2335.821690,1382.314837 2337.278829,1371.814695 2361.553032,1375.130568 2360.095868,1385.630707 2335.821690,1382.314837"/>
    <poly id="100950660" type="amenity" color="237,199,199" fill="1" layer="-1.00" shape="2378.405796,1314.037498 2376.763217,1312.269395 2375.627076,1310.143664 2375.061279,1307.794433 2375.100857,1305.388622 2375.743441,1303.070360 2376.939631,1300.971909 2378.630041,1299.258638 2380.700092,1298.006291 2383.025397,1297.312627 2385.435272,1297.219198 2387.806971,1297.723984 2389.970906,1298.802016 2391.907096,1300.519504 2393.316320,1302.694088 2394.088012,1305.157605 2394.168255,1307.742822 2393.541451,1310.249868 2392.276611,1312.502443 2390.442565,1314.335335 2388.192573,1315.617989 2385.670086,1316.241870 2383.073932,1316.176978 2380.592947,1315.426422 2378.405796,1314.037498"/>
    <poly id="100950660#1" type="landuse" color="194,194,130" fill="1" layer="-3.00" shape="2378.405796,1314.037498 2376.763217,1312.269395 2375.627076,1310.143664 2375.061279,1307.794433 2375.100857,1305.388622 2375.743441,1303.070360 2376.939631,1300.971909 2378.630041,1299.258638 2380.700092,1298.006291 2383.025397,1297.312627 2385.435272,1297.219198 2387.806971,1297.723984 2389.970906,1298.802016 2391.907096,1300.519504 2393.316320,1302.694088 2394.088012,1305.157605 2394.168255,1307.742822 2393.541451,1310.249868 2392.276611,1312.502443 2390.442565,1314.335335 2388.192573,1315.617989 2385.670086,1316.241870 2383.073932,1316.176978 2380.592947,1315.426422 2378.405796,1314.037498"/>
    <poly id="100950661" type="forest" color="140,196,107" fill="1" layer="-4.00" shape="2388.784974,1321.516359 2394.355903,1318.724698 2398.042514,1315.081400 2399.797552,1311.162348 2430.879904,1316.287121 2427.663422,1335.552425 2424.913521,1353.439196 2418.535353,1362.815920 2404.288651,1360.796051 2401.746674,1369.492898 2399.101418,1372.986983 2397.360659,1389.814664 2378.020741,1386.812764 2388.784974,1321.516359"/>
    <poly id="100950662" type="amenity" color="237,199,199" fill="1" layer="-1.00" shape="2353.138873,1365.321953 2367.537191,1367.310975 2369.079566,1356.224485 2354.681233,1354.235461 2353.138873,1365.321953"/>
    <poly id="100950662#1" type="building" color="255,230,230" fill="1" layer="-1.00" shape="2353.138873,1365.321953 2367.537191,1367.310975 2369.079566,1356.224485 2354.681233,1354.235461 2353.138873,1365.321953"/>
    <poly id="100950663" type="building" color="255,230,230" fill="1" layer="-1.00" shape="2446.964849,1386.805019 2448.425936,1376.072067 2448.930283,1372.398591 2489.130689,1377.828886 2487.165198,1392.235308 2446.964849,1386.805019"/>
    <poly id="100950704" type="building" color="255,230,230" fill="1" layer="-1.00" shape="2285.531052,1522.992119 2300.053314,1525.471044 2297.943719,1537.745899 2315.667923,1540.776539 2313.235169,1554.898055 2280.988581,1549.399586 2285.531052,1522.992119"/>
    <poly id="100950789" type="historic" color="128,255,128" fill="1" layer="-1.00" shape="2318.785804,1702.049666 2319.696591,1693.758471 2332.423152,1695.154401 2331.512536,1703.434508 2318.785804,1702.049666"/>
    <poly id="100954797" type="amenity" color="237,199,199" fill="1" layer="-1.00" shape="2339.016303,1131.230474 2366.347899,1135.317437 2364.364854,1148.503716 2337.033293,1144.416757 2339.016303,1131.230474"/>
    <poly id="100954797#1" type="building" color="255,230,230" fill="1" layer="-1.00" shape="2339.016303,1131.230474 2366.347899,1135.317437 2364.364854,1148.503716 2337.033293,1144.416757 2339.016303,1131.230474"/>
    <poly id="100954798" type="building" color="255,230,230" fill="1" layer="-1.00" shape="2337.162159,1192.858595 2339.422951,1193.217378 2355.059654,1195.725772 2360.368208,1162.954367 2339.041961,1159.531756 2337.654665,1168.081262 2349.890860,1170.045773 2347.661578,1183.849026 2338.854086,1182.439943 2337.162159,1192.858595"/>
    <poly id="100954800" type="building" color="255,230,230" fill="1" layer="-1.00" shape="2301.126821,1255.155557 2303.087714,1243.310755 2324.827049,1246.873171 2324.186910,1250.766210 2329.753608,1251.678397 2330.980481,1244.268489 2336.283355,1245.143071 2335.202887,1251.690392 2344.593714,1253.231056 2343.135950,1262.045555 2301.126821,1255.155557"/>
    <poly id="100954800#1" type="tourism" color="207,245,201" fill="1" layer="-2.00" shape="2301.126821,1255.155557 2303.087714,1243.310755 2324.827049,1246.873171 2324.186910,1250.766210 2329.753608,1251.678397 2330.980481,1244.268489 2336.283355,1245.143071 2335.202887,1251.690392 2344.593714,1253.231056 2343.135950,1262.045555 2301.126821,1255.155557"/>
    <poly id="101135423" type="building" color="255,230,230" fill="1" layer="-1.00" shape="2474.925925,1552.834372 2477.569999,1531.053382 2482.470238,1531.134053 2488.130516,1503.979860 2485.915145,1502.013781 2487.334286,1493.830771 2508.745357,1492.630731 2530.345324,1494.871653 2525.943129,1523.044618 2518.954081,1567.798445 2479.583946,1561.317044 2479.746008,1553.767630 2474.925925,1552.834372"/>
    <poly id="101178673" type="building" color="255,230,230" fill="1" layer="-1.00" shape="2400.439265,1382.368691 2400.958277,1376.654953 2411.539061,1377.616423 2411.010784,1383.318919 2400.439265,1382.368691"/>
    <poly id="101472503" type="building" color="255,230,230" fill="1" layer="-1.00" shape="1930.914551,1955.463875 1930.685666,1937.761012 1976.460205,1937.170477 1976.688829,1954.884432 1930.914551,1955.463875"/>
    <poly id="135290880" type="tourism" color="207,245,201" fill="1" layer="-2.00" shape="2474.284740,1950.877421 2488.266429,1934.528529 2519.644974,1961.117145 2505.663265,1977.465995 2474.284740,1950.877421"/>
    <poly id="142741649" type="amenity" color="237,199,199" fill="1" layer="-1.00" shape="2774.719010,151.954792 2813.325590,148.931644 2812.789550,140.195219 2806.030619,141.092946 2803.624519,103.126535 2771.894973,104.954498 2774.719010,151.954792"/>
    <poly id="142741649#1" type="building" color="255,230,230" fill="1" layer="-1.00" shape="2774.719010,151.954792 2813.325590,148.931644 2812.789550,140.195219 2806.030619,141.092946 2803.624519,103.126535 2771.894973,104.954498 2774.719010,151.954792"/>
    <poly id="142741650" type="amenity" color="237,199,199" fill="1" layer="-1.00" shape="2808.362667,102.195488 2812.193858,135.649714 2808.362667,102.195488"/>
    <poly id="142741650#1" type="building" color="255,230,230" fill="1" layer="-1.00" shape="2808.362667,102.195488 2812.193858,135.649714 2808.362667,102.195488"/>
    <poly id="144360488" type="amenity" color="237,199,199" fill="1" layer="-1.00" shape="1406.174611,1478.872309 1409.242236,1459.925958 1452.759941,1466.936789 1449.682976,1485.871889 1406.174611,1478.872309"/>
    <poly id="144360488#1" type="building" color="255,230,230" fill="1" layer="-1.00" shape="1406.174611,1478.872309 1409.242236,1459.925958 1452.759941,1466.936789 1449.682976,1485.871889 1406.174611,1478.872309"/>
    <poly id="146913710" type="tourism" color="207,245,201" fill="1" layer="-2.00" shape="1647.014410,1293.647522 1600.656427,1298.555105 1597.848107,1269.343381 1645.157308,1265.759935 1647.014410,1293.647522"/>
    <poly id="147034584" type="building" color="255,230,230" fill="1" layer="-1.00" shape="1786.242277,1134.740984 1775.352502,1122.652204 1778.692083,1109.055595 1784.926679,1100.918186 1869.079401,1080.107583 1874.430506,1080.927260 1878.885845,1083.384606 1881.475906,1090.158503 1883.751311,1095.962441 1885.872562,1101.375713 1884.267274,1107.116001 1882.103578,1115.231405 1874.417890,1108.762071 1871.164730,1117.081401 1861.097935,1122.194977 1851.785942,1119.868697 1786.242277,1134.740984"/>
    <poly id="147034584#1" type="tourism" color="207,245,201" fill="1" layer="-2.00" shape="1786.242277,1134.740984 1775.352502,1122.652204 1778.692083,1109.055595 1784.926679,1100.918186 1869.079401,1080.107583 1874.430506,1080.927260 1878.885845,1083.384606 1881.475906,1090.158503 1883.751311,1095.962441 1885.872562,1101.375713 1884.267274,1107.116001 1882.103578,1115.231405 1874.417890,1108.762071 1871.164730,1117.081401 1861.097935,1122.194977 1851.785942,1119.868697 1786.242277,1134.740984"/>
    <poly id="147036175" type="amenity" color="237,199,199" fill="1" layer="-1.00" shape="1496.799661,1401.075302 1495.940244,1368.757147 1510.727013,1368.367038 1511.595825,1400.685351 1496.799661,1401.075302"/>
    <poly id="147111958" type="building" color="255,230,230" fill="1" layer="-1.00" shape="2063.049069,973.946526 2062.554260,964.966869 2091.214578,923.829065 2101.175025,924.635832 2100.997246,974.569653 2063.049069,973.946526"/>
    <poly id="147112317" type="amenity" color="237,199,199" fill="1" layer="-1.00" shape="1902.006908,108.928881 1933.466076,108.014229 1944.653575,95.677521 1942.984054,84.017110 1940.658890,84.112049 1940.096014,72.358893 1936.573766,72.301124 1844.067752,84.169534 1901.678336,82.308373 1902.006908,108.928881"/>
    <poly id="147112317#1" type="building" color="255,230,230" fill="1" layer="-1.00" shape="1902.006908,108.928881 1933.466076,108.014229 1944.653575,95.677521 1942.984054,84.017110 1940.658890,84.112049 1940.096014,72.358893 1936.573766,72.301124 1844.067752,84.169534 1901.678336,82.308373 1902.006908,108.928881"/>
    <poly id="147223223" type="building" color="255,230,230" fill="1" layer="-1.00" shape="2769.866115,154.691580 2824.272486,209.684042 2790.268960,250.920468 2780.177436,260.890085 2769.803473,250.749445 2757.735134,243.120428 2756.482577,242.323504 2747.628245,241.989043 2747.933317,218.894248 2749.526743,173.219902 2769.866115,154.691580"/>
    <poly id="147223223#1" type="shop" color="237,199,255" fill="1" layer="-1.00" shape="2769.866115,154.691580 2824.272486,209.684042 2790.268960,250.920468 2780.177436,260.890085 2769.803473,250.749445 2757.735134,243.120428 2756.482577,242.323504 2747.628245,241.989043 2747.933317,218.894248 2749.526743,173.219902 2769.866115,154.691580"/>
    <poly id="147223952" type="building" color="255,230,230" fill="1" layer="-1.00" shape="1600.112914,1436.711976 1595.086711,1473.158933 1630.516375,1474.049685 1626.380762,1436.510059 1600.112914,1436.711976"/>
    <poly id="147224029" type="building" color="255,230,230" fill="1" layer="-1.00" shape="1724.426650,1122.693676 1739.044311,1185.667314 1660.508240,1189.426350 1656.675194,1172.041552 1668.434844,1169.084724 1659.445944,1138.385534 1724.426650,1122.693676"/>
    <poly id="147224029#1" type="tourism" color="207,245,201" fill="1" layer="-2.00" shape="1724.426650,1122.693676 1739.044311,1185.667314 1660.508240,1189.426350 1656.675194,1172.041552 1668.434844,1169.084724 1659.445944,1138.385534 1724.426650,1122.693676"/>
    <poly id="147224030" type="amenity" color="237,199,199" fill="1" layer="-1.00" shape="1585.975157,1165.593986 1655.418000,1146.159929 1648.436738,1121.470951 1578.993746,1140.905061 1585.975157,1165.593986"/>
    <poly id="147224031" type="building" color="255,230,230" fill="1" layer="-1.00" shape="1967.339580,1064.674743 1968.906873,1084.850364 1997.130322,1081.221466 1994.619054,1061.019256 1967.339580,1064.674743"/>
    <poly id="147608332" type="building" color="255,230,230" fill="1" layer="-1.00" shape="1993.645975,85.990411 1995.257933,95.398693 2006.894215,103.496528 2017.522915,101.619347 2052.580867,99.555343 2055.459758,103.705761 2058.084509,104.924343 2063.118232,103.243710 2065.258512,98.299590 2072.019502,98.998317 2069.697562,79.331534 2050.517962,81.944402 2051.420580,62.629969 2018.128349,64.722958 1993.645975,85.990411"/>
    <poly id="153933284" type="building" color="255,230,230" fill="0" layer="-1.00" shape="2584.732785,26.805182 2585.921219,56.168031 2631.253272,52.001778 2630.130796,31.833346 2630.891023,18.937480 2636.769633,11.848184 2637.107735,14.260213 2637.511494,15.553265 2637.834830,16.567751 2638.877382,18.647602 2640.958074,21.354483 2643.838742,23.664222 2645.993124,24.764314 2649.481356,25.742210 2653.087706,25.857058 2654.782402,25.618819 2658.058897,24.541640 2660.194421,23.345861 2662.675429,21.246420 2664.450762,18.980099 2665.966490,15.844507 2666.759718,11.843109"/>
    <poly id="155882962" type="building" color="255,230,230" fill="1" layer="-1.00" shape="2574.649878,79.281867 2652.269561,76.102013 2672.847835,70.020058 2685.318363,61.852785 2694.468951,51.667954 2702.866126,35.615365 2703.452512,16.650579 2673.355241,9.401128 2673.213734,15.697736 2671.070817,20.209205 2666.005441,26.668677 2660.457226,30.902262 2653.218990,33.943597 2645.346507,34.202071 2638.007062,31.918703 2639.526893,61.797151 2574.741416,63.968532 2574.649878,79.281867"/>
    <poly id="155882992" type="building" color="255,230,230" fill="1" layer="-1.00" shape="2768.560972,103.790575 2757.670929,109.477527 2746.705071,119.765461 2737.782779,133.292003 2734.332692,147.197062 2733.305387,185.461733 2742.451769,185.845352 2748.278745,172.145813 2769.331639,153.307649 2768.560972,103.790575"/>
    <poly id="155882996" type="building" color="255,230,230" fill="0" layer="-1.00" shape="2812.767886,-0.001009 2811.425070,4.102217 2809.331924,7.882562 2806.556742,11.208076 2803.214854,13.958674 2799.411778,16.036288 2796.219886,17.136997 2792.638512,17.798788 2789.623602,17.904345 2785.861467,17.498549 2783.763512,16.987110 2781.922531,16.357920 2777.875637,14.317249 2773.774210,11.000367 2771.430604,8.200406 2768.772503,3.277132 2767.821418,0.233972"/>
    <poly id="155883000" type="building" color="255,230,230" fill="1" layer="-1.00" shape="2821.330976,59.259311"/>
    <poly id="155883007" type="building" color="255,230,230" fill="0" layer="-1.00" shape="2738.568579,20.267782 2779.183516,63.333049 2790.424235,61.588737 2798.431956,53.126236 2799.411778,16.036288 2796.219886,17.136997 2792.638512,17.798788 2789.623602,17.904345 2785.861467,17.498549 2783.763512,16.987110 2781.922531,16.357920 2777.875637,14.317249 2773.774210,11.000367 2771.430604,8.200406 2768.772503,3.277132 2767.821418,0.233972"/>
    <poly id="155883007#1" type="shop" color="237,199,255" fill="0" layer="-1.00" shape="2738.568579,20.267782 2779.183516,63.333049 2790.424235,61.588737 2798.431956,53.126236 2799.411778,16.036288 2796.219886,17.136997 2792.638512,17.798788 2789.623602,17.904345 2785.861467,17.498549 2783.763512,16.987110 2781.922531,16.357920 2777.875637,14.317249 2773.774210,11.000367 2771.430604,8.200406 2768.772503,3.277132 2767.821418,0.233972"/>
    <poly id="155883015" type="farm" color="242,242,204" fill="1" layer="-3.00" shape="2692.931404,72.180716 2697.324638,68.105555 2700.889625,63.850404 2703.523421,61.077019 2704.680717,61.351149 2705.155260,62.933703 2704.323405,68.132148 2703.343130,72.019566 2701.226258,73.803396 2692.543726,75.645400 2691.649011,75.486493 2691.150046,74.812892 2690.984509,73.967349 2692.931404,72.180716"/>
    <poly id="155883019" type="farm" color="242,242,204" fill="1" layer="-3.00" shape="2744.922477,71.462676 2740.665890,67.244984 2737.233403,62.885620 2734.701852,60.027122 2733.536336,60.251888 2733.009910,61.817948 2733.669861,67.052066 2734.521710,70.958583 2736.578663,72.811189 2745.195613,74.949339 2746.095078,74.819996 2746.616148,74.152113 2746.809453,73.312483 2744.922477,71.462676"/>
    <poly id="155883021" type="farm" color="242,242,204" fill="1" layer="-3.00" shape="2702.559805,114.402522 2698.591078,109.912349 2694.419787,106.250566 2691.705896,103.566509 2691.998740,102.418006 2693.602101,101.989745 2698.809481,102.962715 2702.683385,104.035703 2704.423783,106.182509 2705.861598,110.642073 2706.046779,114.881384 2705.862191,115.765517 2705.164814,116.241973 2704.312385,116.383183 2702.559805,114.402522"/>
    <poly id="155883025" type="farm" color="242,242,204" fill="1" layer="-3.00" shape="2744.804251,100.415900 2741.495661,101.148741 2738.040984,102.721992 2736.488866,104.626019 2735.418958,107.646961 2735.122523,110.159435 2736.089500,112.238052 2739.955696,108.619990 2747.753897,102.549373 2744.804251,100.415900"/>
    <poly id="155883027" type="historic" color="128,255,128" fill="1" layer="-1.00" shape="2717.113177,88.171241 2716.297718,87.215181 2715.863633,86.043611 2715.855947,84.790350 2716.281545,83.610767 2717.081393,82.648054 2718.168496,82.022765 2719.400111,81.799086 2720.643487,82.008099 2721.738459,82.624985 2722.544475,83.580890 2722.988002,84.752616 2722.995687,86.005877 2722.570089,87.185460 2721.770240,88.148172 2720.683138,88.773461 2719.442080,88.996984 2718.208148,88.788126 2717.113177,88.171241"/>
    <poly id="155883032" type="building" color="255,230,230" fill="0" layer="-1.00" shape="2786.852802,416.311289 2797.244840,472.319241 2755.793651,481.816228 2758.951727,349.246645 2757.887736,290.021245 2759.159721,290.785220 2771.244204,298.004190 2802.811299,316.878040"/>
    <poly id="155883032#1" type="shop" color="237,199,255" fill="0" layer="-1.00" shape="2786.852802,416.311289 2797.244840,472.319241 2755.793651,481.816228 2758.951727,349.246645 2757.887736,290.021245 2759.159721,290.785220 2771.244204,298.004190 2802.811299,316.878040"/>
    <poly id="155883046" type="tourism" color="207,245,201" fill="1" layer="-2.00" shape="2669.789667,107.730047 2685.694873,112.960246 2696.442380,127.387558 2707.393132,139.223246 2706.749839,212.659636 2706.626118,278.064571 2707.947992,329.110007 2574.393691,335.792989 2531.473488,226.795705 2489.235158,119.351357 2669.789667,107.730047"/>
    <poly id="155883048" type="building" color="255,230,230" fill="1" layer="-1.00" shape="2597.192492,300.370908 2593.671492,261.809558 2644.956246,259.183099 2648.800303,297.616723 2597.192492,300.370908"/>
    <poly id="155883049" type="amenity" color="237,199,199" fill="1" layer="-1.00" shape="2743.643392,155.379438 2741.674775,149.314204 2742.748751,143.753791 2746.557483,139.036906 2753.312930,136.630884 2759.261900,137.882261 2764.185429,142.321660 2765.640938,145.705827 2765.786556,151.197623 2763.793977,155.755911 2760.559432,158.874249 2756.535816,160.582281 2751.500335,160.643454 2746.875829,158.693079 2743.643392,155.379438"/>
    <poly id="155883051" type="parking" color="184,184,179" fill="1" layer="-1.00" shape="2611.246088,139.269669 2648.831586,137.448950 2648.152043,123.653283 2610.566495,125.474006 2611.246088,139.269669"/>
    <poly id="155883053" type="parking" color="184,184,179" fill="1" layer="-1.00" shape="2679.363333,199.144767 2678.715579,124.367448 2698.420256,143.211857 2697.973588,198.985614 2679.363333,199.144767"/>
    <poly id="155884077" type="building" color="255,230,230" fill="1" layer="-1.00" shape="2584.531755,150.884263 2604.772850,166.987077 2618.784507,149.540868 2638.556202,148.835154 2663.206765,168.470696 2662.797493,193.315934 2637.473979,193.896884 2638.581744,207.499990 2571.924705,210.383518 2571.432700,204.697503 2568.017597,205.018326 2545.665821,206.968100 2543.114246,180.077992 2511.727969,155.330451 2505.867245,144.698809 2538.643506,117.713697 2564.751228,140.078851 2577.957752,151.452494 2584.531755,150.884263"/>
    <poly id="155887600" type="building" color="255,230,230" fill="1" layer="-1.00" shape="2615.098843,463.950289 2601.086475,469.419615 2607.776496,499.072712 2611.363164,514.136126 2620.422819,524.354775 2632.108471,533.984576 2646.219719,540.283084 2660.440302,540.517354 2674.099257,532.990697 2684.420459,523.390738 2688.265022,516.489759 2690.064189,509.333286 2692.495041,493.648159 2671.776870,493.938907 2668.776357,487.446364 2663.085736,483.138529 2658.721432,480.881962 2651.846672,480.225313 2645.008973,481.332540 2639.189171,485.439664 2633.504698,491.079397 2633.047286,498.779195 2624.381013,499.656701 2615.098843,463.950289"/>
    <poly id="155887600#1" type="tourism" color="207,245,201" fill="1" layer="-2.00" shape="2615.098843,463.950289 2601.086475,469.419615 2607.776496,499.072712 2611.363164,514.136126 2620.422819,524.354775 2632.108471,533.984576 2646.219719,540.283084 2660.440302,540.517354 2674.099257,532.990697 2684.420459,523.390738 2688.265022,516.489759 2690.064189,509.333286 2692.495041,493.648159 2671.776870,493.938907 2668.776357,487.446364 2663.085736,483.138529 2658.721432,480.881962 2651.846672,480.225313 2645.008973,481.332540 2639.189171,485.439664 2633.504698,491.079397 2633.047286,498.779195 2624.381013,499.656701 2615.098843,463.950289"/>
    <poly id="155900466" type="leisure" color="207,245,201" fill="1" layer="-2.00" shape="2650.629765,1974.963742 2658.084035,2016.029827 2439.864984,2083.209736 2446.807831,2067.044350 2448.365843,2062.467773 2452.036463,2056.340148 2460.023113,2030.122504 2467.439783,2033.937483 2485.138694,2035.581843 2501.144990,2032.196905 2517.915264,2025.431123 2530.117569,2017.348083 2542.833501,2003.883920 2554.368836,1985.842454 2562.948443,1970.657811 2572.202017,1965.010336 2620.212794,1955.377063 2650.629765,1974.963742"/>
    <poly id="155900468" type="farm" color="242,242,204" fill="1" layer="-3.00" shape="2670.282255,2015.077567 2666.438333,2010.511780 2663.841447,2003.626620 2664.743187,1936.315835 2666.925296,1930.551883 2671.181822,1924.411806 2676.468552,1919.941081 2684.017126,1916.328282 2690.077378,1914.775820 2694.855675,1914.222480 2698.790341,1914.431514 2701.201048,1915.424973 2705.068884,1917.396172 2710.177246,1920.308273 2714.277630,1924.212920 2717.008404,1928.704922 2719.646225,1933.106674 2720.933268,1936.953847 2720.272010,1993.666845 2720.067429,1999.773906 2718.530544,2004.206631 2716.688249,2008.833935 2714.545428,2012.214236 2681.280442,2021.613276 2677.106868,2019.858837 2673.972926,2018.055000 2670.282255,2015.077567"/>
    <poly id="155900471" type="farm" color="242,242,204" fill="1" layer="-3.00" shape="2570.512052,1953.515738 2566.834311,1951.470094 2564.762616,1948.242130 2565.115917,1942.847263 2627.872327,1938.724554 2628.251529,1948.378852 2570.512052,1953.515738"/>
    <poly id="155900475" type="building" color="255,230,230" fill="0" layer="-1.00" shape="2475.055091,2074.440475 2544.476522,2050.909160"/>
    <poly id="155900481" type="tourism" color="207,245,201" fill="1" layer="-2.00" shape="2748.512169,1944.805466"/>
    <poly id="155900482" type="amenity" color="237,199,199" fill="1" layer="-1.00" shape="2746.318718,1890.551664 2730.371812,1873.132907 2719.222267,1872.904706 2720.105911,1830.767270 2750.334978,1831.409898 2750.123040,1841.398237 2775.537505,1841.928276 2775.004729,1867.359302 2774.499198,1891.138411 2746.318718,1890.551664"/>
    <poly id="155900482#1" type="building" color="255,230,230" fill="1" layer="-1.00" shape="2746.318718,1890.551664 2730.371812,1873.132907 2719.222267,1872.904706 2720.105911,1830.767270 2750.334978,1831.409898 2750.123040,1841.398237 2775.537505,1841.928276 2775.004729,1867.359302 2774.499198,1891.138411 2746.318718,1890.551664"/>
    <poly id="155904420" type="building" color="255,230,230" fill="1" layer="-1.00" shape="2649.564225,1103.761125 2656.583334,1061.813556 2672.201240,1063.179879 2675.351245,1086.952654 2672.634679,1104.507240 2649.564225,1103.761125"/>
    <poly id="156050889" type="building" color="255,230,230" fill="1" layer="-1.00" shape="1812.093598,1958.848693 1918.667567,1950.183827 1914.353344,1897.714365 1870.390211,1901.284754 1870.957222,1908.169647 1832.497915,1911.287095 1829.119413,1864.499861 1798.838565,1866.454091 1801.715283,1900.080745 1817.242847,1898.816099 1820.637308,1940.025492 1810.603920,1940.847926 1812.093598,1958.848693"/>
    <poly id="156050898" type="building" color="255,230,230" fill="1" layer="-1.00" shape="2141.127151,1623.674962 2141.528465,1612.469895 2152.647214,1612.863285 2152.784866,1609.083968 2159.911094,1609.334138 2159.381547,1624.318677 2141.127151,1623.674962"/>
    <poly id="156050903" type="amenity" color="237,199,199" fill="1" layer="-1.00" shape="2497.810000,1400.206609 2500.483062,1384.126204 2555.733907,1393.231282 2553.060759,1409.311677 2497.810000,1400.206609"/>
    <poly id="156050903#1" type="building" color="255,230,230" fill="1" layer="-1.00" shape="2497.810000,1400.206609 2500.483062,1384.126204 2555.733907,1393.231282 2553.060759,1409.311677 2497.810000,1400.206609"/>
    <poly id="156050909" type="building" color="255,230,230" fill="1" layer="-1.00" shape="1967.169403,1606.789901 1968.051929,1588.694966 1973.110090,1588.933241 1973.426259,1582.328991 1987.987045,1583.033758 1987.661243,1589.648940 1993.247770,1589.918077 1992.434063,1606.694472 1988.093291,1606.479052 1988.024245,1607.808678 1985.448143,1607.677675 1985.565168,1605.151152 1982.903909,1605.029842 1983.057994,1601.971624 1978.820895,1601.768999 1975.225645,1601.588001 1975.081004,1604.646374 1970.192800,1604.410887 1970.066337,1606.937255 1967.169403,1606.789901"/>
    <poly id="156050911" type="building" color="255,230,230" fill="1" layer="-1.00" shape="1929.741258,1589.008874 1930.623898,1570.902852 1935.681886,1571.152195 1935.998212,1564.536859 1950.558841,1565.252657 1950.233245,1571.856752 1955.819600,1572.136955 1955.006138,1588.902263 1950.665177,1588.697947 1950.596135,1590.027573 1948.020029,1589.896579 1948.137045,1587.370057 1945.475964,1587.237669 1945.630036,1584.179451 1942.345989,1584.025752 1937.797492,1583.806945 1937.652863,1586.865318 1932.764832,1586.618763 1932.638379,1589.145130 1929.741258,1589.008874"/>
    <poly id="156050913" type="building" color="255,230,230" fill="1" layer="-1.00" shape="1939.715302,1819.715544 1939.737761,1816.045234 1939.813040,1802.250926 1940.009661,1765.525185 1940.291935,1713.796538 2012.825048,1714.199756 2012.698041,1738.617119 1973.065044,1738.398997 1972.975467,1754.788052 2005.280548,1754.963498 2005.142860,1778.881651 1973.357317,1778.703640 1973.294230,1790.601817 1973.255317,1796.999915 1997.420297,1797.130448 1997.334702,1812.698937 1991.432908,1812.657498 1991.397395,1819.998275 1939.715302,1819.715544"/>
    <poly id="156050915" type="building" color="255,230,230" fill="1" layer="-1.00" shape="2140.365671,1547.010627 2142.953103,1521.735414 2160.744795,1523.535935 2158.157319,1548.811146 2140.365671,1547.010627"/>
    <poly id="156050917" type="building" color="255,230,230" fill="1" layer="-1.00" shape="1877.674786,1880.932744 1862.755064,1881.985478 1861.042472,1858.003718 1911.777250,1854.422404 1913.489542,1878.415264 1898.475397,1879.466397 1897.915877,1871.550287 1877.115250,1873.016636 1877.674786,1880.932744"/>
    <poly id="156050918" type="building" color="255,230,230" fill="1" layer="-1.00" shape="1798.838565,1866.454091 1797.501584,1846.049379 1827.791933,1844.095297 1829.119413,1864.499861 1798.838565,1866.454091"/>
    <poly id="156050920" type="building" color="255,230,230" fill="1" layer="-1.00" shape="2141.771727,1568.348080 2143.827151,1553.610405 2145.852918,1553.898751 2146.132282,1551.840661 2152.407859,1552.708959 2152.119234,1554.755806 2155.370048,1555.208448 2153.314608,1569.946121 2146.775222,1569.040219 2141.771727,1568.348080"/>
    <poly id="156050920#1" type="tourism" color="207,245,201" fill="1" layer="-2.00" shape="2141.771727,1568.348080 2143.827151,1553.610405 2145.852918,1553.898751 2146.132282,1551.840661 2152.407859,1552.708959 2152.119234,1554.755806 2155.370048,1555.208448 2153.314608,1569.946121 2146.775222,1569.040219 2141.771727,1568.348080"/>
    <poly id="156050922" type="leisure" color="207,245,201" fill="1" layer="-2.00" shape="2162.972528,1805.793713 2178.478022,1696.127634 2246.545284,1705.663552 2231.038876,1815.340646 2162.972528,1805.793713"/>
    <poly id="156050922#1" type="sport" color="79,230,125" fill="1" layer="-2.00" shape="2162.972528,1805.793713 2178.478022,1696.127634 2246.545284,1705.663552 2231.038876,1815.340646 2162.972528,1805.793713"/>
    <poly id="156066576" type="building" color="255,230,230" fill="1" layer="-1.00" shape="2108.262743,1649.473025 2108.933122,1637.984047 2124.199034,1638.878031 2123.528820,1650.355922 2108.262743,1649.473025"/>
    <poly id="156066605" type="amenity" color="237,199,199" fill="1" layer="-1.00" shape="2017.420012,1543.616319 2017.845265,1515.987855 2036.729008,1516.275713 2037.146870,1488.525141 2082.486900,1489.214232 2082.148174,1510.988778 2127.195238,1511.684351 2127.053510,1520.886450 2126.913239,1529.999856 2082.461082,1529.314050 2082.117044,1551.986773 2067.614293,1551.770772 2067.226223,1577.126471 2033.566252,1576.607016 2034.065847,1543.878524 2017.420012,1543.616319"/>