<?xml version="1.0" encoding="UTF-8"?>

<!-- generated on 08/30/20 08:19:45 by Eclipse SUMO netedit Version 1.6.0
<configuration xmlns:xsi="http://www.w3.org/2001/XMLSchema-instance" xsi:noNamespaceSchemaLocation="http://sumo.dlr.de/xsd/netconvertConfiguration.xsd">

    <input>
        <sumo-net-file value="C:\Users\lenovo\Desktop\8-30%20version\osm.829.net.xml"/>
    </input>

    <output>
        <output-file value="C:\Users\lenovo\Desktop\8-30%20version\osm.829.net.xml"/>
    </output>

    <processing>
        <geometry.min-radius.fix.railways value="false"/>
        <geometry.max-grade.fix value="false"/>
        <offset.disable-normalization value="true"/>
        <lefthand value="false"/>
    </processing>

    <junctions>
        <no-internal-links value="false"/>
        <no-turnarounds value="true"/>
        <junctions.corner-detail value="5"/>
        <junctions.limit-turn-speed value="5.5"/>
        <rectangular-lane-cut value="false"/>
    </junctions>

    <pedestrian>
        <walkingareas value="false"/>
    </pedestrian>

    <netedit>
        <additional-files value="C:\Users\lenovo\Desktop\8-30%20version\taz2.add.xml"/>
    </netedit>

    <report>
        <aggregate-warnings value="5"/>
    </report>

</configuration>
-->

<additional xmlns:xsi="http://www.w3.org/2001/XMLSchema-instance" xsi:noNamespaceSchemaLocation="http://sumo.dlr.de/xsd/additional_file.xsd">
    <taz id="1" shape="15.08,2133.10 346.93,2180.36 821.56,2119.02 817.24,1718.19 703.59,1309.27 117.93,1292.68 15.97,2136.79 15.97,2136.79 15.08,2133.10" color="blue">
        <tazSource id="-423512775#0.42.58" weight="1.00"/>
        <tazSource id="-423512775#0.621" weight="1.00"/>
        <tazSource id="-466139720" weight="1.00"/>
        <tazSource id="-61862589#1" weight="1.00"/>
        <tazSource id="-61970178#0" weight="1.00"/>
        <tazSource id="-61970178#0.142" weight="1.00"/>
        <tazSource id="-61970178#1" weight="1.00"/>
        <tazSource id="-61970178#2" weight="1.00"/>
        <tazSource id="-91830555#0" weight="1.00"/>
        <tazSource id="-91830555#1.12" weight="1.00"/>
        <tazSource id="-91830559#0" weight="1.00"/>
        <tazSource id="-91830559#1" weight="1.00"/>
        <tazSource id="383945571" weight="1.00"/>
        <tazSource id="383946293" weight="1.00"/>
        <tazSource id="383946293.246" weight="1.00"/>
        <tazSource id="383946293.301" weight="1.00"/>
        <tazSource id="383946297" weight="1.00"/>
        <tazSource id="422921348#0" weight="1.00"/>
        <tazSource id="422921350#1" weight="1.00"/>
        <tazSource id="422921357" weight="1.00"/>
        <tazSource id="422921359" weight="1.00"/>
        <tazSource id="422921363.87" weight="1.00"/>
        <tazSource id="422921368" weight="1.00"/>
        <tazSource id="423512775#0" weight="1.00"/>
        <tazSource id="423512775#0.171" weight="1.00"/>
        <tazSource id="423524825" weight="1.00"/>
        <tazSource id="61862589#1.696" weight="1.00"/>
        <tazSource id="61970178#0" weight="1.00"/>
        <tazSource id="61970178#1" weight="1.00"/>
        <tazSource id="91830555#0" weight="1.00"/>
        <tazSource id="91830555#1" weight="1.00"/>
        <tazSource id="91830559#0" weight="1.00"/>
        <tazSource id="91830559#1" weight="1.00"/>
        <tazSource id="gneE1001" weight="1.00"/>
        <tazSource id="gneE101" weight="1.00"/>
        <tazSource id="gneE1101" weight="1.00"/>
        <tazSource id="gneE12" weight="1.00"/>
        <tazSource id="gneE13" weight="1.00"/>
        <tazSource id="gneE14" weight="1.00"/>
        <tazSource id="gneE601" weight="1.00"/>
        <tazSource id="gneE801" weight="1.00"/>
        <tazSource id="61862589#1.192" weight="1.00"/>
        <tazSource id="166261567#4.59" weight="1.00"/>
        <tazSource id="166261567#4" weight="1.00"/>
        <tazSource id="166261567#3" weight="1.00"/>
        <tazSource id="-61862589#1.59" weight="1.00"/>
        <tazSink id="-423512775#0.42.58" weight="1.00"/>
        <tazSink id="-423512775#0.621" weight="1.00"/>
        <tazSink id="-466139720" weight="1.00"/>
        <tazSink id="-61862589#1" weight="1.00"/>
        <tazSink id="-61970178#0" weight="1.00"/>
        <tazSink id="-61970178#0.142" weight="1.00"/>
        <tazSink id="-61970178#1" weight="1.00"/>
        <tazSink id="-61970178#2" weight="1.00"/>
        <tazSink id="-91830555#0" weight="1.00"/>
        <tazSink id="-91830555#1.12" weight="1.00"/>
        <tazSink id="-91830559#0" weight="1.00"/>
        <tazSink id="-91830559#1" weight="1.00"/>
        <tazSink id="383945571" weight="1.00"/>
        <tazSink id="383946293" weight="1.00"/>
        <tazSink id="383946293.246" weight="1.00"/>
        <tazSink id="383946293.301" weight="1.00"/>
        <tazSink id="383946297" weight="1.00"/>
        <tazSink id="422921348#0" weight="1.00"/>
        <tazSink id="422921350#1" weight="1.00"/>
        <tazSink id="422921357" weight="1.00"/>
        <tazSink id="422921359" weight="1.00"/>
        <tazSink id="422921363.87" weight="1.00"/>
        <tazSink id="422921368" weight="1.00"/>
        <tazSink id="423512775#0" weight="1.00"/>
        <tazSink id="423512775#0.171" weight="1.00"/>
        <tazSink id="423524825" weight="1.00"/>
        <tazSink id="61862589#1.696" weight="1.00"/>
        <tazSink id="61970178#0" weight="1.00"/>
        <tazSink id="61970178#1" weight="1.00"/>
        <tazSink id="91830555#0" weight="1.00"/>
        <tazSink id="91830555#1" weight="1.00"/>
        <tazSink id="91830559#0" weight="1.00"/>
        <tazSink id="91830559#1" weight="1.00"/>
        <tazSink id="gneE1001" weight="1.00"/>
        <tazSink id="gneE101" weight="1.00"/>
        <tazSink id="gneE1101" weight="1.00"/>
        <tazSink id="gneE12" weight="1.00"/>
        <tazSink id="gneE13" weight="1.00"/>
        <tazSink id="gneE14" weight="1.00"/>
        <tazSink id="gneE601" weight="1.00"/>
        <tazSink id="gneE801" weight="1.00"/>
        <tazSink id="61862589#1.192" weight="1.00"/>
        <tazSink id="166261567#4.59" weight="1.00"/>
        <tazSink id="166261567#4" weight="1.00"/>
        <tazSink id="166261567#3" weight="1.00"/>
        <tazSink id="-61862589#1.59" weight="1.00"/>
    </taz>
    <taz id="10" shape="1522.75,1508.88 1738.31,1506.92 1942.11,1036.62 1495.32,1154.19 1522.75,1506.92 1522.75,1508.88" color="blue">
        <tazSource id="-136184082" weight="1.00"/>
        <tazSource id="-147034582" weight="1.00"/>
        <tazSource id="-147034583#0" weight="1.00"/>
        <tazSource id="-147034583#1" weight="1.00"/>
        <tazSource id="-166261566#1" weight="1.00"/>
        <tazSource id="-166261566#2" weight="1.00"/>
        <tazSource id="-166261566#3" weight="1.00"/>
        <tazSource id="-167176206#0" weight="1.00"/>
        <tazSource id="-422921344#4" weight="1.00"/>
        <tazSource id="-422921344#5" weight="1.00"/>
        <tazSource id="-422921344#6" weight="1.00"/>
        <tazSource id="-422921344#7" weight="1.00"/>
        <tazSource id="-422921344#7.41" weight="1.00"/>
        <tazSource id="-61858449#1" weight="1.00"/>
        <tazSource id="-61858449#1.144" weight="1.00"/>
        <tazSource id="-61858449#1.198" weight="1.00"/>
        <tazSource id="-61858449#2" weight="1.00"/>
        <tazSource id="-61858449#3" weight="1.00"/>
        <tazSource id="-61970176#1" weight="1.00"/>
        <tazSource id="-93689864#1" weight="1.00"/>
        <tazSource id="136184082" weight="1.00"/>
        <tazSource id="147034582" weight="1.00"/>
        <tazSource id="147034583#0" weight="1.00"/>
        <tazSource id="147034583#1" weight="1.00"/>
        <tazSource id="166261566#1" weight="1.00"/>
        <tazSource id="166261566#2" weight="1.00"/>
        <tazSource id="166261566#3" weight="1.00"/>
        <tazSource id="166261566#3.228" weight="1.00"/>
        <tazSource id="167176206#0" weight="1.00"/>
        <tazSource id="191934366#3" weight="1.00"/>
        <tazSource id="191934366#4" weight="1.00"/>
        <tazSource id="191934373#0" weight="1.00"/>
        <tazSource id="191934373#1" weight="1.00"/>
        <tazSource id="191934374#0" weight="1.00"/>
        <tazSource id="191934377#0" weight="1.00"/>
        <tazSource id="191934377#1" weight="1.00"/>
        <tazSource id="191934377#2" weight="1.00"/>
        <tazSource id="191934377#3" weight="1.00"/>
        <tazSource id="191934377#4" weight="1.00"/>
        <tazSource id="192093784" weight="1.00"/>
        <tazSource id="422921344#4" weight="1.00"/>
        <tazSource id="422921344#5" weight="1.00"/>
        <tazSource id="422921344#6" weight="1.00"/>
        <tazSource id="422921344#6.86" weight="1.00"/>
        <tazSource id="422921344#7" weight="1.00"/>
        <tazSource id="61858449#1" weight="1.00"/>
        <tazSource id="61858449#2" weight="1.00"/>
        <tazSource id="61858449#3" weight="1.00"/>
        <tazSource id="61970176#1" weight="1.00"/>
        <tazSource id="61970176#1.162" weight="1.00"/>
        <tazSource id="93689864#1" weight="1.00"/>
        <tazSource id="gneE21" weight="1.00"/>
        <tazSource id="gneE22" weight="1.00"/>
        <tazSource id="gneE26" weight="1.00"/>
        <tazSource id="gneE28" weight="1.00"/>
        <tazSource id="gneE30" weight="1.00"/>
        <tazSink id="-136184082" weight="1.00"/>
        <tazSink id="-147034582" weight="1.00"/>
        <tazSink id="-147034583#0" weight="1.00"/>
        <tazSink id="-147034583#1" weight="1.00"/>
        <tazSink id="-166261566#1" weight="1.00"/>
        <tazSink id="-166261566#2" weight="1.00"/>
        <tazSink id="-166261566#3" weight="1.00"/>
        <tazSink id="-167176206#0" weight="1.00"/>
        <tazSink id="-422921344#4" weight="1.00"/>
        <tazSink id="-422921344#5" weight="1.00"/>
        <tazSink id="-422921344#6" weight="1.00"/>
        <tazSink id="-422921344#7" weight="1.00"/>
        <tazSink id="-422921344#7.41" weight="1.00"/>
        <tazSink id="-61858449#1" weight="1.00"/>
        <tazSink id="-61858449#1.144" weight="1.00"/>
        <tazSink id="-61858449#1.198" weight="1.00"/>
        <tazSink id="-61858449#2" weight="1.00"/>
        <tazSink id="-61858449#3" weight="1.00"/>
        <tazSink id="-61970176#1" weight="1.00"/>
        <tazSink id="-93689864#1" weight="1.00"/>
        <tazSink id="136184082" weight="1.00"/>
        <tazSink id="147034582" weight="1.00"/>
        <tazSink id="147034583#0" weight="1.00"/>
        <tazSink id="147034583#1" weight="1.00"/>
        <tazSink id="166261566#1" weight="1.00"/>
        <tazSink id="166261566#2" weight="1.00"/>
        <tazSink id="166261566#3" weight="1.00"/>
        <tazSink id="166261566#3.228" weight="1.00"/>
        <tazSink id="167176206#0" weight="1.00"/>
        <tazSink id="191934366#3" weight="1.00"/>
        <tazSink id="191934366#4" weight="1.00"/>
        <tazSink id="191934373#0" weight="1.00"/>
        <tazSink id="191934373#1" weight="1.00"/>
        <tazSink id="191934374#0" weight="1.00"/>
        <tazSink id="191934377#0" weight="1.00"/>
        <tazSink id="191934377#1" weight="1.00"/>
        <tazSink id="191934377#2" weight="1.00"/>
        <tazSink id="191934377#3" weight="1.00"/>
        <tazSink id="191934377#4" weight="1.00"/>
        <tazSink id="192093784" weight="1.00"/>
        <tazSink id="422921344#4" weight="1.00"/>
        <tazSink id="422921344#5" weight="1.00"/>
        <tazSink id="422921344#6" weight="1.00"/>
        <tazSink id="422921344#6.86" weight="1.00"/>
        <tazSink id="422921344#7" weight="1.00"/>
        <tazSink id="61858449#1" weight="1.00"/>
        <tazSink id="61858449#2" weight="1.00"/>
        <tazSink id="61858449#3" weight="1.00"/>
        <tazSink id="61970176#1" weight="1.00"/>
        <tazSink id="61970176#1.162" weight="1.00"/>
        <tazSink id="93689864#1" weight="1.00"/>
        <tazSink id="gneE21" weight="1.00"/>
        <tazSink id="gneE22" weight="1.00"/>
        <tazSink id="gneE26" weight="1.00"/>
        <tazSink id="gneE28" weight="1.00"/>
        <tazSink id="gneE30" weight="1.00"/>
    </taz>
    <taz id="12" shape="1490.13,1145.33 1344.37,870.02 1472.31,714.55 1580.82,690.26 1679.61,544.50 2052.09,609.28 2103.92,824.67 1943.59,1038.45 1490.13,1146.95 1490.13,1145.33" color="blue">
        <tazSource id="--61862486#0" weight="1.00"/>
        <tazSource id="-166261566#1" weight="1.00"/>
        <tazSource id="-166261566#2" weight="1.00"/>
        <tazSource id="-166261566#3" weight="1.00"/>
        <tazSource id="-166261566#4" weight="1.00"/>
        <tazSource id="-166261566#5" weight="1.00"/>
        <tazSource id="-190247403#10" weight="1.00"/>
        <tazSource id="-190247403#11" weight="1.00"/>
        <tazSource id="-190247403#9" weight="1.00"/>
        <tazSource id="-191934624#2" weight="1.00"/>
        <tazSource id="-191934624#3" weight="1.00"/>
        <tazSource id="-422921344#7" weight="1.00"/>
        <tazSource id="-524568471#2" weight="1.00"/>
        <tazSource id="-61858449#1" weight="1.00"/>
        <tazSource id="-61858449#1.144" weight="1.00"/>
        <tazSource id="-61858449#1.198" weight="1.00"/>
        <tazSource id="-61862480#2" weight="1.00"/>
        <tazSource id="-61862480#3" weight="1.00"/>
        <tazSource id="-61862480#3.84" weight="1.00"/>
        <tazSource id="-61862480#4" weight="1.00"/>
        <tazSource id="-61862480#5" weight="1.00"/>
        <tazSource id="-61862480#6" weight="1.00"/>
        <tazSource id="-61862480#7" weight="1.00"/>
        <tazSource id="-61862486#0" weight="1.00"/>
        <tazSource id="-61862486#1.61" weight="1.00"/>
        <tazSource id="-61862487#0" weight="1.00"/>
        <tazSource id="-61862487#1" weight="1.00"/>
        <tazSource id="-93689864#0" weight="1.00"/>
        <tazSource id="-93689864#1" weight="1.00"/>
        <tazSource id="-gneE32" weight="1.00"/>
        <tazSource id="-gneE34" weight="1.00"/>
        <tazSource id="-gneE35" weight="1.00"/>
        <tazSource id="-gneE36" weight="1.00"/>
        <tazSource id="-gneE38" weight="1.00"/>
        <tazSource id="-gneE39" weight="1.00"/>
        <tazSource id="-gneE40" weight="1.00"/>
        <tazSource id="-gneE41" weight="1.00"/>
        <tazSource id="-gneE42" weight="1.00"/>
        <tazSource id="-gneE43" weight="1.00"/>
        <tazSource id="-gneE45" weight="1.00"/>
        <tazSource id="-gneE46" weight="1.00"/>
        <tazSource id="-gneE47" weight="1.00"/>
        <tazSource id="-gneE50" weight="1.00"/>
        <tazSource id="166261566#1" weight="1.00"/>
        <tazSource id="166261566#2" weight="1.00"/>
        <tazSource id="166261566#3" weight="1.00"/>
        <tazSource id="166261566#3.228" weight="1.00"/>
        <tazSource id="166261566#4" weight="1.00"/>
        <tazSource id="166261566#5" weight="1.00"/>
        <tazSource id="190247403#10" weight="1.00"/>
        <tazSource id="190247403#11" weight="1.00"/>
        <tazSource id="190247403#9" weight="1.00"/>
        <tazSource id="191934366#3" weight="1.00"/>
        <tazSource id="191934366#4" weight="1.00"/>
        <tazSource id="191934369#0" weight="1.00"/>
        <tazSource id="191934369#1" weight="1.00"/>
        <tazSource id="191934372#1" weight="1.00"/>
        <tazSource id="191934373#0" weight="1.00"/>
        <tazSource id="191934373#1" weight="1.00"/>
        <tazSource id="191934374#0" weight="1.00"/>
        <tazSource id="191934374#2" weight="1.00"/>
        <tazSource id="191934375#0" weight="1.00"/>
        <tazSource id="191934375#1" weight="1.00"/>
        <tazSource id="191934375#2" weight="1.00"/>
        <tazSource id="191934375#3" weight="1.00"/>
        <tazSource id="191934377#0" weight="1.00"/>
        <tazSource id="191934377#1" weight="1.00"/>
        <tazSource id="191934377#2" weight="1.00"/>
        <tazSource id="191934377#3" weight="1.00"/>
        <tazSource id="191934377#4" weight="1.00"/>
        <tazSource id="191934377#5" weight="1.00"/>
        <tazSource id="191934377#6" weight="1.00"/>
        <tazSource id="191934377#7" weight="1.00"/>
        <tazSource id="191934377#8" weight="1.00"/>
        <tazSource id="191934378#1" weight="1.00"/>
        <tazSource id="191934378#2" weight="1.00"/>
        <tazSource id="191934618" weight="1.00"/>
        <tazSource id="191934621#1" weight="1.00"/>
        <tazSource id="191934622#0" weight="1.00"/>
        <tazSource id="191934622#1" weight="1.00"/>
        <tazSource id="191934624#2" weight="1.00"/>
        <tazSource id="191934624#3" weight="1.00"/>
        <tazSource id="192093785" weight="1.00"/>
        <tazSource id="192093786" weight="1.00"/>
        <tazSource id="192093787#0" weight="1.00"/>
        <tazSource id="192093787#1" weight="1.00"/>
        <tazSource id="192093788#0" weight="1.00"/>
        <tazSource id="192093788#1" weight="1.00"/>
        <tazSource id="192093788#2" weight="1.00"/>
        <tazSource id="192093789#0" weight="1.00"/>
        <tazSource id="192093789#1" weight="1.00"/>
        <tazSource id="192093790#0" weight="1.00"/>
        <tazSource id="192093790#1" weight="1.00"/>
        <tazSource id="192093790#2" weight="1.00"/>
        <tazSource id="192093791#0" weight="1.00"/>
        <tazSource id="192093791#1" weight="1.00"/>
        <tazSource id="192093791#2" weight="1.00"/>
        <tazSource id="192093791#3" weight="1.00"/>
        <tazSource id="192093792" weight="1.00"/>
        <tazSource id="192504823#0" weight="1.00"/>
        <tazSource id="422921344#7" weight="1.00"/>
        <tazSource id="423376906" weight="1.00"/>
        <tazSource id="432981001#0" weight="1.00"/>
        <tazSource id="432981001#1" weight="1.00"/>
        <tazSource id="524568471#2.195" weight="1.00"/>
        <tazSource id="61858449#1" weight="1.00"/>
        <tazSource id="61862480#2" weight="1.00"/>
        <tazSource id="61862480#3" weight="1.00"/>
        <tazSource id="61862480#5" weight="1.00"/>
        <tazSource id="61862480#6" weight="1.00"/>
        <tazSource id="61862480#7" weight="1.00"/>
        <tazSource id="61862486#1" weight="1.00"/>
        <tazSource id="61862486#1.61" weight="1.00"/>
        <tazSource id="61862487#0" weight="1.00"/>
        <tazSource id="61862487#1" weight="1.00"/>
        <tazSource id="61862488#0" weight="1.00"/>
        <tazSource id="779252390#6" weight="1.00"/>
        <tazSource id="779252390#7" weight="1.00"/>
        <tazSource id="93689864#0" weight="1.00"/>
        <tazSource id="93689864#1" weight="1.00"/>
        <tazSource id="gneE100" weight="1.00"/>
        <tazSource id="gneE21" weight="1.00"/>
        <tazSource id="gneE22" weight="1.00"/>
        <tazSource id="gneE26" weight="1.00"/>
        <tazSource id="gneE28" weight="1.00"/>
        <tazSource id="gneE30" weight="1.00"/>
        <tazSource id="gneE32" weight="1.00"/>
        <tazSource id="gneE34" weight="1.00"/>
        <tazSource id="gneE35" weight="1.00"/>
        <tazSource id="gneE36" weight="1.00"/>
        <tazSource id="gneE38" weight="1.00"/>
        <tazSource id="gneE39" weight="1.00"/>
        <tazSource id="gneE40" weight="1.00"/>
        <tazSource id="gneE41" weight="1.00"/>
        <tazSource id="gneE42" weight="1.00"/>
        <tazSource id="gneE43" weight="1.00"/>
        <tazSource id="gneE45" weight="1.00"/>
        <tazSource id="gneE46" weight="1.00"/>
        <tazSource id="gneE47" weight="1.00"/>
        <tazSource id="gneE50" weight="1.00"/>
        <tazSource id="gneE68.231" weight="1.00"/>
        <tazSink id="--61862486#0" weight="1.00"/>
        <tazSink id="-166261566#1" weight="1.00"/>
        <tazSink id="-166261566#2" weight="1.00"/>
        <tazSink id="-166261566#3" weight="1.00"/>
        <tazSink id="-166261566#4" weight="1.00"/>
        <tazSink id="-166261566#5" weight="1.00"/>
        <tazSink id="-190247403#10" weight="1.00"/>
        <tazSink id="-190247403#11" weight="1.00"/>
        <tazSink id="-190247403#9" weight="1.00"/>
        <tazSink id="-191934624#2" weight="1.00"/>
        <tazSink id="-191934624#3" weight="1.00"/>
        <tazSink id="-422921344#7" weight="1.00"/>
        <tazSink id="-524568471#2" weight="1.00"/>
        <tazSink id="-61858449#1" weight="1.00"/>
        <tazSink id="-61858449#1.144" weight="1.00"/>
        <tazSink id="-61858449#1.198" weight="1.00"/>
        <tazSink id="-61862480#2" weight="1.00"/>
        <tazSink id="-61862480#3" weight="1.00"/>
        <tazSink id="-61862480#3.84" weight="1.00"/>
        <tazSink id="-61862480#4" weight="1.00"/>
        <tazSink id="-61862480#5" weight="1.00"/>
        <tazSink id="-61862480#6" weight="1.00"/>
        <tazSink id="-61862480#7" weight="1.00"/>
        <tazSink id="-61862486#0" weight="1.00"/>
        <tazSink id="-61862486#1.61" weight="1.00"/>
        <tazSink id="-61862487#0" weight="1.00"/>
        <tazSink id="-61862487#1" weight="1.00"/>
        <tazSink id="-93689864#0" weight="1.00"/>
        <tazSink id="-93689864#1" weight="1.00"/>
        <tazSink id="-gneE32" weight="1.00"/>
        <tazSink id="-gneE34" weight="1.00"/>
        <tazSink id="-gneE35" weight="1.00"/>
        <tazSink id="-gneE36" weight="1.00"/>
        <tazSink id="-gneE38" weight="1.00"/>
        <tazSink id="-gneE39" weight="1.00"/>
        <tazSink id="-gneE40" weight="1.00"/>
        <tazSink id="-gneE41" weight="1.00"/>
        <tazSink id="-gneE42" weight="1.00"/>
        <tazSink id="-gneE43" weight="1.00"/>
        <tazSink id="-gneE45" weight="1.00"/>
        <tazSink id="-gneE46" weight="1.00"/>
        <tazSink id="-gneE47" weight="1.00"/>
        <tazSink id="-gneE50" weight="1.00"/>
        <tazSink id="166261566#1" weight="1.00"/>
        <tazSink id="166261566#2" weight="1.00"/>
        <tazSink id="166261566#3" weight="1.00"/>
        <tazSink id="166261566#3.228" weight="1.00"/>
        <tazSink id="166261566#4" weight="1.00"/>
        <tazSink id="166261566#5" weight="1.00"/>
        <tazSink id="190247403#10" weight="1.00"/>
        <tazSink id="190247403#11" weight="1.00"/>
        <tazSink id="190247403#9" weight="1.00"/>
        <tazSink id="191934366#3" weight="1.00"/>
        <tazSink id="191934366#4" weight="1.00"/>
        <tazSink id="191934369#0" weight="1.00"/>
        <tazSink id="191934369#1" weight="1.00"/>
        <tazSink id="191934372#1" weight="1.00"/>
        <tazSink id="191934373#0" weight="1.00"/>
        <tazSink id="191934373#1" weight="1.00"/>
        <tazSink id="191934374#0" weight="1.00"/>
        <tazSink id="191934374#2" weight="1.00"/>
        <tazSink id="191934375#0" weight="1.00"/>
        <tazSink id="191934375#1" weight="1.00"/>
        <tazSink id="191934375#2" weight="1.00"/>
        <tazSink id="191934375#3" weight="1.00"/>
        <tazSink id="191934377#0" weight="1.00"/>
        <tazSink id="191934377#1" weight="1.00"/>
        <tazSink id="191934377#2" weight="1.00"/>
        <tazSink id="191934377#3" weight="1.00"/>
        <tazSink id="191934377#4" weight="1.00"/>
        <tazSink id="191934377#5" weight="1.00"/>
        <tazSink id="191934377#6" weight="1.00"/>
        <tazSink id="191934377#7" weight="1.00"/>
        <tazSink id="191934377#8" weight="1.00"/>
        <tazSink id="191934378#1" weight="1.00"/>
        <tazSink id="191934378#2" weight="1.00"/>
        <tazSink id="191934618" weight="1.00"/>
        <tazSink id="191934621#1" weight="1.00"/>
        <tazSink id="191934622#0" weight="1.00"/>
        <tazSink id="191934622#1" weight="1.00"/>
        <tazSink id="191934624#2" weight="1.00"/>
        <tazSink id="191934624#3" weight="1.00"/>
        <tazSink id="192093785" weight="1.00"/>
        <tazSink id="192093786" weight="1.00"/>
        <tazSink id="192093787#0" weight="1.00"/>
        <tazSink id="192093787#1" weight="1.00"/>
        <tazSink id="192093788#0" weight="1.00"/>
        <tazSink id="192093788#1" weight="1.00"/>
        <tazSink id="192093788#2" weight="1.00"/>
        <tazSink id="192093789#0" weight="1.00"/>
        <tazSink id="192093789#1" weight="1.00"/>
        <tazSink id="192093790#0" weight="1.00"/>
        <tazSink id="192093790#1" weight="1.00"/>
        <tazSink id="192093790#2" weight="1.00"/>
        <tazSink id="192093791#0" weight="1.00"/>
        <tazSink id="192093791#1" weight="1.00"/>
        <tazSink id="192093791#2" weight="1.00"/>
        <tazSink id="192093791#3" weight="1.00"/>
        <tazSink id="192093792" weight="1.00"/>
        <tazSink id="192504823#0" weight="1.00"/>
        <tazSink id="422921344#7" weight="1.00"/>
        <tazSink id="423376906" weight="1.00"/>
        <tazSink id="432981001#0" weight="1.00"/>
        <tazSink id="432981001#1" weight="1.00"/>
        <tazSink id="524568471#2.195" weight="1.00"/>
        <tazSink id="61858449#1" weight="1.00"/>
        <tazSink id="61862480#2" weight="1.00"/>
        <tazSink id="61862480#3" weight="1.00"/>
        <tazSink id="61862480#5" weight="1.00"/>
        <tazSink id="61862480#6" weight="1.00"/>
        <tazSink id="61862480#7" weight="1.00"/>
        <tazSink id="61862486#1" weight="1.00"/>
        <tazSink id="61862486#1.61" weight="1.00"/>
        <tazSink id="61862487#0" weight="1.00"/>
        <tazSink id="61862487#1" weight="1.00"/>
        <tazSink id="61862488#0" weight="1.00"/>
        <tazSink id="779252390#6" weight="1.00"/>
        <tazSink id="779252390#7" weight="1.00"/>
        <tazSink id="93689864#0" weight="1.00"/>
        <tazSink id="93689864#1" weight="1.00"/>
        <tazSink id="gneE100" weight="1.00"/>
        <tazSink id="gneE21" weight="1.00"/>
        <tazSink id="gneE22" weight="1.00"/>
        <tazSink id="gneE26" weight="1.00"/>
        <tazSink id="gneE28" weight="1.00"/>
        <tazSink id="gneE30" weight="1.00"/>
        <tazSink id="gneE32" weight="1.00"/>
        <tazSink id="gneE34" weight="1.00"/>
        <tazSink id="gneE35" weight="1.00"/>
        <tazSink id="gneE36" weight="1.00"/>
        <tazSink id="gneE38" weight="1.00"/>
        <tazSink id="gneE39" weight="1.00"/>
        <tazSink id="gneE40" weight="1.00"/>
        <tazSink id="gneE41" weight="1.00"/>
        <tazSink id="gneE42" weight="1.00"/>
        <tazSink id="gneE43" weight="1.00"/>
        <tazSink id="gneE45" weight="1.00"/>
        <tazSink id="gneE46" weight="1.00"/>
        <tazSink id="gneE47" weight="1.00"/>
        <tazSink id="gneE50" weight="1.00"/>
        <tazSink id="gneE68.231" weight="1.00"/>
    </taz>
    <taz id="13" shape="1797.62,1994.91 1737.27,1503.44 1944.20,1037.84 2700.80,1035.68 2692.18,1897.91 2379.62,2005.68 1801.93,1994.91 1797.62,1994.91" color="blue">
        <tazSource id="-137684671#1" weight="1.00"/>
        <tazSource id="-137684671#2" weight="1.00"/>
        <tazSource id="-137684671#3" weight="1.00"/>
        <tazSource id="-137684671#4" weight="1.00"/>
        <tazSource id="-137684671#5" weight="1.00"/>
        <tazSource id="-147034583#1" weight="1.00"/>
        <tazSource id="-155904418" weight="1.00"/>
        <tazSource id="-155904419" weight="1.00"/>
        <tazSource id="-156050906#2" weight="1.00"/>
        <tazSource id="-156050906#4" weight="1.00"/>
        <tazSource id="-156050906#5" weight="1.00"/>
        <tazSource id="-156050906#6" weight="1.00"/>
        <tazSource id="-156066572#0" weight="1.00"/>
        <tazSource id="-156066572#1" weight="1.00"/>
        <tazSource id="-156066572#2" weight="1.00"/>
        <tazSource id="-156066572#3" weight="1.00"/>
        <tazSource id="-156066572#4" weight="1.00"/>
        <tazSource id="-156066573#0" weight="1.00"/>
        <tazSource id="-156066573#1" weight="1.00"/>
        <tazSource id="-156066573#2" weight="1.00"/>
        <tazSource id="-156066573#3" weight="1.00"/>
        <tazSource id="-156066573#4" weight="1.00"/>
        <tazSource id="-156066573#5" weight="1.00"/>
        <tazSource id="-156066584#0" weight="1.00"/>
        <tazSource id="-156066584#1" weight="1.00"/>
        <tazSource id="-156066584#2" weight="1.00"/>
        <tazSource id="-156066584#3" weight="1.00"/>
        <tazSource id="-156066584#4" weight="1.00"/>
        <tazSource id="-156066585" weight="1.00"/>
        <tazSource id="-156066591#0" weight="1.00"/>
        <tazSource id="-156066591#1" weight="1.00"/>
        <tazSource id="-156066591#2" weight="1.00"/>
        <tazSource id="-156066591#3" weight="1.00"/>
        <tazSource id="-156066593#0" weight="1.00"/>
        <tazSource id="-156066593#1" weight="1.00"/>
        <tazSource id="-156066596#0" weight="1.00"/>
        <tazSource id="-156066596#1" weight="1.00"/>
        <tazSource id="-156066596#2" weight="1.00"/>
        <tazSource id="-156066596#3" weight="1.00"/>
        <tazSource id="-156066596#4" weight="1.00"/>
        <tazSource id="-156066597#0" weight="1.00"/>
        <tazSource id="-156066597#1" weight="1.00"/>
        <tazSource id="-156066597#2" weight="1.00"/>
        <tazSource id="-156066597#3" weight="1.00"/>
        <tazSource id="-156066597#4" weight="1.00"/>
        <tazSource id="-156066609#0" weight="1.00"/>
        <tazSource id="-156066609#1" weight="1.00"/>
        <tazSource id="-156066609#2" weight="1.00"/>
        <tazSource id="-156066609#3" weight="1.00"/>
        <tazSource id="-156066609#4" weight="1.00"/>
        <tazSource id="-156066609#5" weight="1.00"/>
        <tazSource id="-156066609#6" weight="1.00"/>
        <tazSource id="-156066609#7" weight="1.00"/>
        <tazSource id="-156066609#8" weight="1.00"/>
        <tazSource id="-156066609#9" weight="1.00"/>
        <tazSource id="-156085152" weight="1.00"/>
        <tazSource id="-156085154#0" weight="1.00"/>
        <tazSource id="-156085154#1" weight="1.00"/>
        <tazSource id="-156085155#0" weight="1.00"/>
        <tazSource id="-156085155#1" weight="1.00"/>
        <tazSource id="-156085157#0" weight="1.00"/>
        <tazSource id="-156085157#1" weight="1.00"/>
        <tazSource id="-156085157#2" weight="1.00"/>
        <tazSource id="-156085157#3" weight="1.00"/>