<routes>
        <vehicle id="test" type="passenger" depart="619" color="orange">
			<route edges="448@325#0"/> 
        </vehicle>
        </routes>