<?xml version="1.0" encoding="UTF-8"?>

<!-- generated on 10/16/20 15:34:43 by Eclipse SUMO duarouter Version v1_6_0+1599-7c2d62c3e8
<configuration xmlns:xsi="http://www.w3.org/2001/XMLSchema-instance" xsi:noNamespaceSchemaLocation="http://sumo.dlr.de/xsd/duarouterConfiguration.xsd">

    <input>
        <net-file value="net.net.xml"/>
        <route-files value="test2.rou.xml"/>
    </input>

    <output>
        <output-file value="test2.rou.xml.tmp"/>
        <write-trips value="true"/>
    </output>

    <time>
        <begin value="0"/>
        <end value="10800"/>
    </time>

    <report>
        <no-warnings value="true"/>
        <ignore-errors value="true"/>
        <no-step-log value="true"/>
    </report>

</configuration>
-->

<routes xmlns:xsi="http://www.w3.org/2001/XMLSchema-instance" xsi:noNamespaceSchemaLocation="http://sumo.dlr.de/xsd/routes_file.xsd">
    <trip id="per0" depart="0.00" from="2/1to2/2" to="0/0to0/1"/>
    <trip id="per1" depart="2.00" from="1/0to2/0" to="1/0to0/0"/>
    <trip id="per2" depart="4.00" from="2/2to2/1" to="2/1to3/1"/>
    <trip id="per3" depart="6.00" from="3/1to3/2" to="0/1to0/2"/>
    <trip id="per4" depart="8.00" from="1/2to0/2" to="0/0to1/0"/>
    <trip id="per5" depart="10.00" from="1/0to0/0" to="2/0to1/0"/>
    <trip id="per6" depart="12.00" from="0/0to0/1" to="0/2to1/2"/>
    <trip id="per7" depart="14.00" from="2/1to2/2" to="2/0to3/0"/>
    <trip id="per8" depart="16.00" from="1/0to0/0" to="2/1to1/1"/>
    <trip id="per9" depart="18.00" from="3/0to3/1" to="0/0to0/1"/>
    <trip id="per10" depart="20.00" from="3/0to3/1" to="2/2to1/2"/>
    <trip id="per11" depart="22.00" from="1/1to1/0" to="0/2to0/1"/>
    <trip id="per12" depart="24.00" from="3/2to3/1" to="1/1to1/0"/>
    <trip id="per13" depart="26.00" from="0/1to0/2" to="0/1to0/2"/>
    <trip id="per14" depart="28.00" from="3/1to2/1" to="2/1to2/0"/>
    <trip id="per15" depart="30.00" from="3/0to3/1" to="2/2to2/1"/>
    <trip id="per16" depart="32.00" from="2/0to2/1" to="3/2to3/1"/>
    <trip id="per17" depart="34.00" from="1/1to2/1" to="2/0to3/0"/>
    <trip id="per18" depart="36.00" from="3/1to2/1" to="2/1to2/0"/>
    <trip id="per19" depart="38.00" from="3/1to3/0" to="2/1to1/1"/>
    <trip id="per20" depart="40.00" from="2/2to1/2" to="0/0to1/0"/>
    <trip id="per21" depart="42.00" from="1/0to0/0" to="1/1to0/1"/>
    <trip id="per22" depart="44.00" from="0/1to0/0" to="1/0to1/1"/>
    <trip id="per23" depart="46.00" from="0/1to0/2" to="1/0to2/0"/>
    <trip id="per24" depart="48.00" from="2/1to2/2" to="1/1to1/2"/>
    <trip id="per25" depart="50.00" from="1/1to1/2" to="1/0to0/0"/>
    <trip id="per26" depart="52.00" from="1/0to2/0" to="3/1to3/2"/>
    <trip id="per27" depart="54.00" from="2/1to2/2" to="2/1to2/0"/>
    <trip id="per28" depart="56.00" from="0/2to0/1" to="2/2to2/1"/>
    <trip id="per29" depart="58.00" from="0/2to0/1" to="1/1to2/1"/>
    <trip id="per30" depart="60.00" from="Oto0/2" to="2/1to2/2"/>
    <trip id="per31" depart="62.00" from="2/0to3/0" to="2/1to3/1"/>
    <trip id="per32" depart="64.00" from="3/1to2/1" to="3.0toD"/>
    <trip id="per33" depart="66.00" from="1/0to1/1" to="0/0to1/0"/>
    <trip id="per34" depart="68.00" from="1/1to1/0" to="1/0to2/0"/>
    <trip id="per35" depart="70.00" from="1/0to0/0" to="3/2to2/2"/>
    <trip id="per36" depart="72.00" from="3/1to3/0" to="1/1to1/0"/>
    <trip id="per37" depart="74.00" from="2/1to2/2" to="1/1to2/1"/>
    <trip id="per38" depart="76.00" from="3/2to2/2" to="1/2to2/2"/>
    <trip id="per39" depart="78.00" from="1/0to2/0" to="1/0to1/1"/>
    <trip id="per40" depart="80.00" from="2/0to3/0" to="1/0to2/0"/>
    <trip id="per41" depart="82.00" from="2/1to1/1" to="3/1to3/0"/>
    <trip id="per42" depart="84.00" from="1/1to2/1" to="1/0to0/0"/>
    <trip id="per43" depart="86.00" from="Oto0/2" to="2/0to1/0"/>
    <trip id="per44" depart="88.00" from="0/1to0/2" to="0/0to1/0"/>
    <trip id="per45" depart="90.00" from="0/1to0/2" to="2/1to2/0"/>
    <trip id="per46" depart="92.00" from="3/0to2/0" to="1/2to0/2"/>
    <trip id="per47" depart="94.00" from="0/1to0/0" to="1/1to2/1"/>
    <trip id="per48" depart="96.00" from="Oto0/2" to="2/0to2/1"/>
    <trip id="per49" depart="98.00" from="3/2to3/1" to="3/1to2/1"/>
    <trip id="per50" depart="100.00" from="0/0to0/1" to="2/2to2/1"/>
    <trip id="per51" depart="102.00" from="2/1to3/1" to="2/0to2/1"/>
    <trip id="per52" depart="104.00" from="1/0to2/0" to="2/1to2/2"/>
    <trip id="per53" depart="106.00" from="0/1to0/2" to="1/2to1/1"/>
    <trip id="per54" depart="108.00" from="1/2to1/1" to="3/2to2/2"/>
    <trip id="per55" depart="110.00" from="3/1to3/0" to="1/0to2/0"/>
    <trip id="per56" depart="112.00" from="2/0to1/0" to="0/2to1/2"/>
    <trip id="per57" depart="114.00" from="3/1to3/2" to="3/1to2/1"/>
    <trip id="per58" depart="116.00" from="1/1to0/1" to="2/1to2/2"/>
    <trip id="per59" depart="118.00" from="2/1to2/0" to="0/2to0/1"/>
    <trip id="per60" depart="120.00" from="2/2to3/2" to="2/0to2/1"/>
    <trip id="per61" depart="122.00" from="3/0to2/0" to="2/0to2/1"/>
    <trip id="per62" depart="124.00" from="0/0to0/1" to="1/1to1/0"/>
    <trip id="per63" depart="126.00" from="0/0to0/1" to="3/1to3/2"/>
    <trip id="per64" depart="128.00" from="3/1to3/0" to="3/0to3/1"/>
    <trip id="per65" depart="130.00" from="1/1to0/1" to="0/1to0/0"/>
    <trip id="per66" depart="132.00" from="3/1to3/0" to="3/2to2/2"/>
    <trip id="per67" depart="134.00" from="0/1to0/0" to="2/0to1/0"/>
    <trip id="per68" depart="136.00" from="0/1to0/0" to="2/2to3/2"/>
    <trip id="per69" depart="138.00" from="2/2to3/2" to="0/1to1/1"/>
    <trip id="per70" depart="140.00" from="1/2to2/2" to="2/0to3/0"/>
    <trip id="per71" depart="142.00" from="1/0to2/0" to="3/1to2/1"/>
    <trip id="per72" depart="144.00" from="1/2to0/2" to="1/0to0/0"/>
    <trip id="per73" depart="146.00" from="2/0to2/1" to="2/2to2/1"/>
    <trip id="per74" depart="148.00" from="1/0to0/0" to="1/1to0/1"/>
    <trip id="per75" depart="150.00" from="Oto0/2" to="2/1to2/2"/>
    <trip id="per76" depart="152.00" from="1/2to1/1" to="2/0to2/1"/>
    <trip id="per77" depart="154.00" from="0/1to1/1" to="1/0to0/0"/>
    <trip id="per78" depart="156.00" from="1/1to1/0" to="2/1to1/1"/>
    <trip id="per79" depart="158.00" from="1/0to1/1" to="1/0to0/0"/>
    <trip id="per80" depart="160.00" from="0/1to0/0" to="2/1to2/2"/>
    <trip id="per81" depart="162.00" from="1/0to1/1" to="3/1to3/0"/>
    <trip id="per82" depart="164.00" from="3/1to3/0" to="0/1to0/0"/>
    <trip id="per83" depart="166.00" from="1/0to1/1" to="2/1to3/1"/>
    <trip id="per84" depart="168.00" from="1/0to0/0" to="0/1to1/1"/>
    <trip id="per85" depart="170.00" from="3/2to2/2" to="2/0to3/0"/>
    <trip id="per86" depart="172.00" from="1/2to2/2" to="3.0toD"/>
    <trip id="per87" depart="174.00" from="3/0to3/1" to="0/2to1/2"/>
    <trip id="per88" depart="176.00" from="0/1to0/2" to="1/2to1/1"/>
    <trip id="per89" depart="178.00" from="1/2to0/2" to="1/2to2/2"/>
    <trip id="per90" depart="180.00" from="2/2to2/1" to="2/1to3/1"/>
    <trip id="per91" depart="182.00" from="Oto0/2" to="0/1to0/2"/>
    <trip id="per92" depart="184.00" from="1/2to0/2" to="1/1to1/0"/>
    <trip id="per93" depart="186.00" from="3/1to3/0" to="1/0to1/1"/>
    <trip id="per94" depart="188.00" from="0/2to1/2" to="1/2to1/1"/>
    <trip id="per95" depart="190.00" from="1/2to0/2" to="1/0to2/0"/>
    <trip id="per96" depart="192.00" from="1/0to1/1" to="3/1to3/2"/>
    <trip id="per97" depart="194.00" from="1/2to1/1" to="3/1to2/1"/>
    <trip id="per98" depart="196.00" from="2/0to3/0" to="0/0to1/0"/>
    <trip id="per99" depart="198.00" from="Oto0/2" to="3/0to3/1"/>
    <trip id="per100" depart="200.00" from="3/2to3/1" to="3/1to3/2"/>
    <trip id="per101" depart="202.00" from="3/1to2/1" to="0/2to0/1"/>
    <trip id="per102" depart="204.00" from="1/2to2/2" to="1/0to0/0"/>
    <trip id="per103" depart="206.00" from="1/2to0/2" to="0/1to0/0"/>
    <trip id="per104" depart="208.00" from="1/1to2/1" to="3/2to3/1"/>
    <trip id="per105" depart="210.00" from="1/0to2/0" to="3.0toD"/>
    <trip id="per106" depart="212.00" from="1/2to1/1" to="1/2to0/2"/>
    <trip id="per107" depart="214.00" from="3/2to3/1" to="3/2to3/1"/>
    <trip id="per108" depart="216.00" from="2/0to3/0" to="2/2to2/1"/>
    <trip id="per109" depart="218.00" from="0/2to0/1" to="1/1to0/1"/>
    <trip id="per110" depart="220.00" from="3/2to3/1" to="2/1to1/1"/>
    <trip id="per111" depart="222.00" from="2/0to2/1" to="2/2to3/2"/>
    <trip id="per112" depart="224.00" from="0/1to0/0" to="2/1to1/1"/>
    <trip id="per113" depart="226.00" from="2/0to1/0" to="3/0to3/1"/>
    <trip id="per114" depart="228.00" from="0/2to0/1" to="3/2to2/2"/>
    <trip id="per115" depart="230.00" from="0/1to0/0" to="0/2to1/2"/>
    <trip id="per116" depart="232.00" from="2/1to1/1" to="2/1to3/1"/>
    <trip id="per117" depart="234.00" from="1/0to1/1" to="0/1to1/1"/>
    <trip id="per118" depart="236.00" from="3/1to3/2" to="1/0to1/1"/>
    <trip id="per119" depart="238.00" from="2/1to1/1" to="2/1to2/0"/>
    <trip id="per120" depart="240.00" from="1/2to0/2" to="2/1to1/1"/>
    <trip id="per121" depart="242.00" from="2/0to2/1" to="3/1to3/2"/>
    <trip id="per122" depart="244.00" from="1/0to0/0" to="2/2to2/1"/>
    <trip id="per123" depart="246.00" from="1/0to1/1" to="1/1to2/1"/>
    <trip id="per124" depart="248.00" from="2/1to3/1" to="1/1to0/1"/>
    <trip id="per125" depart="250.00" from="1/1to1/0" to="2/2to3/2"/>
    <trip id="per126" depart="252.00" from="0/1to0/0" to="1/2to2/2"/>
    <trip id="per127" depart="254.00" from="Oto0/2" to="3/2to3/1"/>
    <trip id="per128" depart="256.00" from="0/1to0/0" to="1/0to0/0"/>
    <trip id="per129" depart="258.00" from="1/0to2/0" to="3/1to3/2"/>
    <trip id="per130" depart="260.00" from="3/1to3/0" to="3/1to2/1"/>
    <trip id="per131" depart="262.00" from="1/1to1/2" to="0/2to0/1"/>
    <trip id="per132" depart="264.00" from="3/1to2/1" to="2/2to1/2"/>
    <trip id="per133" depart="266.00" from="2/1to2/0" to="3/2to3/1"/>
    <trip id="per134" depart="268.00" from="2/1to2/2" to="0/0to0/1"/>
    <trip id="per135" depart="270.00" from="3/0to3/1" to="1/1to0/1"/>
    <trip id="per136" depart="272.00" from="2/1to3/1" to="3/1to3/2"/>
    <trip id="per137" depart="274.00" from="0/1to1/1" to="0/1to1/1"/>
    <trip id="per138" depart="276.00" from="0/1to0/2" to="2/0to3/0"/>
    <trip id="per139" depart="278.00" from="1/0to2/0" to="2/1to2/0"/>
    <trip id="per140" depart="280.00" from="2/2to2/1" to="1/0to0/0"/>
    <trip id="per141" depart="282.00" from="2/1to2/2" to="1/0to2/0"/>
    <trip id="per142" depart="284.00" from="2/0to1/0" to="3/1to3/0"/>
    <trip id="per143" depart="286.00" from="3/1to2/1" to="0/1to0/2"/>
    <trip id="per144" depart="288.00" from="1/2to0/2" to="1/0to2/0"/>
    <trip id="per145" depart="290.00" from="0/0to0/1" to="2/2to3/2"/>
    <trip id="per146" depart="292.00" from="2/1to2/2" to="1/0to2/0"/>
    <trip id="per147" depart="294.00" from="2/2to2/1" to="2/0to3/0"/>
    <trip id="per148" depart="296.00" from="1/2to0/2" to="0/0to0/1"/>
    <trip id="per149" depart="298.00" from="0/1to0/0" to="3/1to2/1"/>
    <trip id="per150" depart="300.00" from="3/1to3/2" to="2/0to3/0"/>
    <trip id="per151" depart="302.00" from="3/1to2/1" to="2/1to1/1"/>
    <trip id="per152" depart="304.00" from="0/2to0/1" to="0/1to1/1"/>
    <trip id="per153" depart="306.00" from="1/1to0/1" to="3/1to3/0"/>
    <trip id="per154" depart="308.00" from="3/0to2/0" to="3/1to2/1"/>
    <trip id="per155" depart="310.00" from="3/1to3/2" to="1/0to0/0"/>
    <trip id="per156" depart="312.00" from="1/0to1/1" to="0/1to0/2"/>
    <trip id="per157" depart="314.00" from="3/0to2/0" to="3/1to2/1"/>
    <trip id="per158" depart="316.00" from="1/2to0/2" to="2/1to2/0"/>
    <trip id="per159" depart="318.00" from="0/2to0/1" to="3/1to3/2"/>
    <trip id="per160" depart="320.00" from="3/1to3/0" to="3/2to3/1"/>
    <trip id="per161" depart="322.00" from="3/0to3/1" to="3/1to2/1"/>
    <trip id="per162" depart="324.00" from="0/0to0/1" to="2/2to2/1"/>
    <trip id="per163" depart="326.00" from="1/1to1/0" to="3/1to3/2"/>
    <trip id="per164" depart="328.00" from="3/0to3/1" to="3/1to2/1"/>
    <trip id="per165" depart="330.00" from="3/0to3/1" to="1/0to2/0"/>
    <trip id="per166" depart="332.00" from="3/0to2/0" to="0/1to0/2"/>
    <trip id="per167" depart="334.00" from="3/1to3/0" to="3/1to2/1"/>
    <trip id="per168" depart="336.00" from="1/0to0/0" to="3/0to2/0"/>
    <trip id="per169" depart="338.00" from="1/2to2/2" to="1/1to0/1"/>
    <trip id="per170" depart="340.00" from="3/0to2/0" to="1/0to0/0"/>
    <trip id="per171" depart="342.00" from="0/0to0/1" to="0/2to1/2"/>
    <trip id="per172" depart="344.00" from="1/1to1/0" to="3/1to2/1"/>
    <trip id="per173" depart="346.00" from="3/2to3/1" to="1/0to2/0"/>
    <trip id="per174" depart="348.00" from="2/1to2/2" to="1/1to2/1"/>
    <trip id="per175" depart="350.00" from="Oto0/2" to="2/0to2/1"/>
    <trip id="per176" depart="352.00" from="3/2to2/2" to="0/1to1/1"/>
    <trip id="per177" depart="354.00" from="3/2to3/1" to="0/2to1/2"/>
    <trip id="per178" depart="356.00" from="3/2to3/1" to="1/0to2/0"/>
    <trip id="per179" depart="358.00" from="0/1to0/2" to="1/2to1/1"/>
    <trip id="per180" depart="360.00" from="2/2to2/1" to="1/1to0/1"/>
    <trip id="per181" depart="362.00" from="2/1to2/0" to="2/0to1/0"/>
    <trip id="per182" depart="364.00" from="1/1to2/1" to="2/1to1/1"/>
    <trip id="per183" depart="366.00" from="1/0to1/1" to="2/2to1/2"/>
    <trip id="per184" depart="368.00" from="0/0to0/1" to="3/1to3/2"/>
    <trip id="per185" depart="370.00" from="2/0to2/1" to="2/2to2/1"/>
    <trip id="per186" depart="372.00" from="2/2to2/1" to="2/1to3/1"/>
    <trip id="per187" depart="374.00" from="1/1to1/2" to="0/1to0/0"/>
    <trip id="per188" depart="376.00" from="2/1to3/1" to="1/1to1/0"/>
    <trip id="per189" depart="378.00" from="1/1to0/1" to="3/0to3/1"/>
    <trip id="per190" depart="380.00" from="2/2to2/1" to="1/1to0/1"/>
    <trip id="per191" depart="382.00" from="1/1to0/1" to="1/2to0/2"/>
    <trip id="per192" depart="384.00" from="1/2to0/2" to="1/1to0/1"/>
    <trip id="per193" depart="386.00" from="0/1to1/1" to="1/2to0/2"/>
    <trip id="per194" depart="388.00" from="3/2to2/2" to="2/1to3/1"/>
    <trip id="per195" depart="390.00" from="3/1to3/2" to="2/1to2/0"/>
    <trip id="per196" depart="392.00" from="1/1to0/1" to="2/0to3/0"/>
    <trip id="per197" depart="394.00" from="0/0to0/1" to="1/1to0/1"/>
    <trip id="per198" depart="396.00" from="1/2to1/1" to="2/1to1/1"/>
    <trip id="per199" depart="398.00" from="2/1to2/2" to="1/2to2/2"/>
    <trip id="per200" depart="400.00" from="1/2to1/1" to="1/0to0/0"/>
    <trip id="per201" depart="402.00" from="1/2to2/2" to="3/1to3/0"/>
    <trip id="per202" depart="404.00" from="3/0to2/0" to="0/2to0/1"/>
    <trip id="per203" depart="406.00" from="0/1to0/0" to="2/0to2/1"/>
    <trip id="per204" depart="408.00" from="2/1to2/2" to="1/1to1/0"/>
    <trip id="per205" depart="410.00" from="3/0to3/1" to="2/2to3/2"/>
    <trip id="per206" depart="412.00" from="2/1to3/1" to="1/0to0/0"/>
    <trip id="per207" depart="414.00" from="0/2to1/2" to="0/0to0/1"/>
    <trip id="per208" depart="416.00" from="1/0to1/1" to="1/2to2/2"/>
    <trip id="per209" depart="418.00" from="3/1to2/1" to="0/1to0/0"/>
    <trip id="per210" depart="420.00" from="1/2to0/2" to="2/1to2/2"/>
    <trip id="per211" depart="422.00" from="0/2to1/2" to="2/2to1/2"/>
    <trip id="per212" depart="424.00" from="2/0to1/0" to="1/0to1/1"/>
    <trip id="per213" depart="426.00" from="2/1to2/2" to="0/0to0/1"/>
    <trip id="per214" depart="428.00" from="2/2to3/2" to="2/2to3/2"/>
    <trip id="per215" depart="430.00" from="0/1to0/2" to="1/2to0/2"/>
    <trip id="per216" depart="432.00" from="0/2to1/2" to="3/2to2/2"/>
    <trip id="per217" depart="434.00" from="2/0to2/1" to="0/0to1/0"/>
    <trip id="per218" depart="436.00" from="1/0to1/1" to="3/0to3/1"/>
    <trip id="per219" depart="438.00" from="1/2to1/1" to="3/0to2/0"/>
    <trip id="per220" depart="440.00" from="2/1to3/1" to="3/2to3/1"/>
    <trip id="per221" depart="442.00" from="2/1to1/1" to="3/2to2/2"/>
    <trip id="per222" depart="444.00" from="3/1to3/2" to="2/1to2/0"/>
    <trip id="per223" depart="446.00" from="2/2to2/1" to="2/0to1/0"/>
    <trip id="per224" depart="448.00" from="3/1to2/1" to="2/0to3/0"/>
    <trip id="per225" depart="450.00" from="3/1to3/2" to="2/2to3/2"/>
    <trip id="per226" depart="452.00" from="1/2to2/2" to="1/0to2/0"/>
    <trip id="per227" depart="454.00" from="1/0to1/1" to="2/1to2/2"/>
    <trip id="per228" depart="456.00" from="2/2to3/2" to="2/0to2/1"/>
    <trip id="per229" depart="458.00" from="2/1to2/0" to="1/0to2/0"/>
    <trip id="per230" depart="460.00" from="0/1to0/0" to="1/1to0/1"/>
    <trip id="per231" depart="462.00" from="1/0to2/0" to="1/1to1/0"/>
    <trip id="per232" depart="464.00" from="2/0to2/1" to="0/1to1/1"/>
    <trip id="per233" depart="466.00" from="1/0to1/1" to="2/2to1/2"/>
    <trip id="per234" depart="468.00" from="2/2to1/2" to="0/1to0/0"/>
    <trip id="per235" depart="470.00" from="1/2to0/2" to="2/0to2/1"/>
    <trip id="per236" depart="472.00" from="1/2to0/2" to="1/0to0/0"/>
    <trip id="per237" depart="474.00" from="1/2to0/2" to="3/1to3/0"/>
    <trip id="per238" depart="476.00" from="2/1to1/1" to="2/2to1/2"/>
    <trip id="per239" depart="478.00" from="3/1to2/1" to="2/2to3/2"/>
    <trip id="per240" depart="480.00" from="1/1to2/1" to="0/0to0/1"/>
    <trip id="per241" depart="482.00" from="1/1to1/2" to="2/2to3/2"/>
    <trip id="per242" depart="484.00" from="3/1to2/1" to="3/2to2/2"/>
    <trip id="per243" depart="486.00" from="1/2to0/2" to="2/2to3/2"/>
    <trip id="per244" depart="488.00" from="2/0to3/0" to="2/1to2/0"/>
    <trip id="per245" depart="490.00" from="1/0to0/0" to="1/0to0/0"/>
    <trip id="per246" depart="492.00" from="1/2to1/1" to="0/0to1/0"/>
    <trip id="per247" depart="494.00" from="1/1to1/0" to="2/1to3/1"/>
    <trip id="per248" depart="496.00" from="1/2to0/2" to="0/2to0/1"/>
    <trip id="per249" depart="498.00" from="1/2to2/2" to="0/1to1/1"/>
    <trip id="per250" depart="500.00" from="2/1to2/0" to="0/0to0/1"/>
    <trip id="per251" depart="502.00" from="1/1to2/1" to="2/0to3/0"/>
    <trip id="per252" depart="504.00" from="0/0to0/1" to="2/1to2/2"/>
    <trip id="per253" depart="506.00" from="0/1to1/1" to="1/2to2/2"/>
    <trip id="per254" depart="508.00" from="0/0to1/0" to="1/1to2/1"/>
    <trip id="per255" depart="510.00" from="1/0to0/0" to="1/1to1/0"/>
    <trip id="per256" depart="512.00" from="2/2to3/2" to="1/1to2/1"/>
    <trip id="per257" depart="514.00" from="2/2to3/2" to="3/0to3/1"/>
    <trip id="per258" depart="516.00" from="1/0to1/1" to="0/1to0/0"/>
    <trip id="per259" depart="518.00" from="0/0to0/1" to="2/0to2/1"/>
    <trip id="per260" depart="520.00" from="Oto0/2" to="1/1to1/2"/>
    <trip id="per261" depart="522.00" from="2/1to2/2" to="3.0toD"/>
    <trip id="per262" depart="524.00" from="2/1to2/2" to="2/2to3/2"/>
    <trip id="per263" depart="526.00" from="3/2to3/1" to="0/2to1/2"/>
    <trip id="per264" depart="528.00" from="0/0to0/1" to="0/2to0/1"/>
    <trip id="per265" depart="530.00" from="0/1to1/1" to="2/1to3/1"/>
    <trip id="per266" depart="532.00" from="2/0to3/0" to="1/0to0/0"/>
    <trip id="per267" depart="534.00" from="2/2to1/2" to="2/2to3/2"/>
    <trip id="per268" depart="536.00" from="0/2to0/1" to="2/1to2/0"/>
    <trip id="per269" depart="538.00" from="2/2to3/2" to="0/1to1/1"/>
    <trip id="per270" depart="540.00" from="3/0to3/1" to="3/2to2/2"/>
    <trip id="per271" depart="542.00" from="0/1to0/2" to="0/0to0/1"/>
    <trip id="per272" depart="544.00" from="1/1to0/1" to="2/1to3/1"/>
    <trip id="per273" depart="546.00" from="3/2to3/1" to="1/1to2/1"/>
    <trip id="per274" depart="548.00" from="2/2to2/1" to="0/1to0/0"/>
    <trip id="per275" depart="550.00" from="2/2to1/2" to="2/1to2/0"/>
    <trip id="per276" depart="552.00" from="0/1to0/2" to="3.0toD"/>
    <trip id="per277" depart="554.00" from="3/1to2/1" to="2/1to2/0"/>
    <trip id="per278" depart="556.00" from="0/1to1/1" to="3/2to3/1"/>
    <trip id="per279" depart="558.00" from="3/0to2/0" to="1/1to1/2"/>
    <trip id="per280" depart="560.00" from="1/2to0/2" to="1/1to1/2"/>
    <trip id="per281" depart="562.00" from="2/0to1/0" to="1/1to1/0"/>
    <trip id="per282" depart="564.00" from="3/1to2/1" to="3/0to2/0"/>
    <trip id="per283" depart="566.00" from="0/1to0/2" to="3/2to2/2"/>
    <trip id="per284" depart="568.00" from="2/1to2/2" to="3/0to3/1"/>
    <trip id="per285" depart="570.00" from="2/2to1/2" to="1/2to1/1"/>
    <trip id="per286" depart="572.00" from="2/2to2/1" to="3/2to2/2"/>
    <trip id="per287" depart="574.00" from="1/0to2/0" to="3/0to2/0"/>
    <trip id="per288" depart="576.00" from="2/0to2/1" to="1/2to2/2"/>
    <trip id="per289" depart="578.00" from="1/2to1/1" to="2/2to2/1"/>
    <trip id="per290" depart="580.00" from="1/0to2/0" to="3/0to3/1"/>
    <trip id="per291" depart="582.00" from="3/1to2/1" to="0/1to0/2"/>
    <trip id="per292" depart="584.00" from="3/1to3/0" to="1/0to1/1"/>
    <trip id="per293" depart="586.00" from="1/2to2/2" to="2/1to2/0"/>
    <trip id="per294" depart="588.00" from="1/1to2/1" to="0/0to1/0"/>
    <trip id="per295" depart="590.00" from="3/1to2/1" to="0/2to1/2"/>
    <trip id="per296" depart="592.00" from="1/0to0/0" to="3.0toD"/>
    <trip id="per297" depart="594.00" from="1/1to1/0" to="3/1to2/1"/>
    <trip id="per298" depart="596.00" from="2/2to1/2" to="1/0to2/0"/>
    <trip id="per299" depart="598.00" from="0/0to0/1" to="3/2to2/2"/>
    <trip id="per300" depart="600.00" from="0/1to0/0" to="2/2to2/1"/>
    <trip id="per301" depart="602.00" from="2/0to1/0" to="2/2to3/2"/>
    <trip id="per302" depart="604.00" from="2/2to1/2" to="2/1to2/2"/>
    <trip id="per303" depart="606.00" from="2/0to1/0" to="3.0toD"/>
    <trip id="per304" depart="608.00" from="0/1to0/2" to="1/0to0/0"/>
    <trip id="per305" depart="610.00" from="2/2to1/2" to="1/1to0/1"/>
    <trip id="per306" depart="612.00" from="2/1to1/1" to="1/2to2/2"/>
    <trip id="per307" depart="614.00" from="2/0to2/1" to="1/2to0/2"/>
    <trip id="per308" depart="616.00" from="2/2to3/2" to="1/1to1/0"/>
    <trip id="per309" depart="618.00" from="2/2to1/2" to="1/0to2/0"/>
    <trip id="per310" depart="620.00" from="1/0to1/1" to="0/1to1/1"/>
    <trip id="per311" depart="622.00" from="0/2to1/2" to="0/1to1/1"/>
    <trip id="per312" depart="624.00" from="2/0to2/1" to="2/2to3/2"/>
    <trip id="per313" depart="626.00" from="0/2to1/2" to="1/0to0/0"/>
    <trip id="per314" depart="628.00" from="1/2to2/2" to="2/2to2/1"/>
    <trip id="per315" depart="630.00" from="Oto0/2" to="2/0to2/1"/>
    <trip id="per316" depart="632.00" from="1/0to2/0" to="0/1to0/2"/>
    <trip id="per317" depart="634.00" from="0/2to1/2" to="1/0to0/0"/>
    <trip id="per318" depart="636.00" from="0/2to1/2" to="0/0to0/1"/>
    <trip id="per319" depart="638.00" from="2/0to2/1" to="1/0to2/0"/>
    <trip id="per320" depart="640.00" from="Oto0/2" to="2/0to3/0"/>
    <trip id="per321" depart="642.00" from="2/2to1/2" to="0/1to1/1"/>
    <trip id="per322" depart="644.00" from="3/1to3/0" to="2/0to1/0"/>
    <trip id="per323" depart="646.00" from="3/1to3/0" to="2/1to1/1"/>
    <trip id="per324" depart="648.00" from="1/2to2/2" to="1/2to1/1"/>
    <trip id="per325" depart="650.00" from="0/2to1/2" to="0/0to1/0"/>
    <trip id="per326" depart="652.00" from="3/2to2/2" to="1/2to2/2"/>
    <trip id="per327" depart="654.00" from="3/0to3/1" to="1/2to0/2"/>
    <trip id="per328" depart="656.00" from="0/1to0/0" to="2/1to2/2"/>
    <trip id="per329" depart="658.00" from="0/0to1/0" to="0/2to0/1"/>
    <trip id="per330" depart="660.00" from="2/0to3/0" to="1/1to0/1"/>
    <trip id="per331" depart="662.00" from="Oto0/2" to="0/1to1/1"/>
    <trip id="per332" depart="664.00" from="2/2to3/2" to="2/1to2/0"/>
    <trip id="per333" depart="666.00" from="3/0to2/0" to="1/0to0/0"/>
    <trip id="per334" depart="668.00" from="2/0to2/1" to="1/2to1/1"/>
    <trip id="per335" depart="670.00" from="1/2to1/1" to="3/1to2/1"/>
    <trip id="per336" depart="672.00" from="Oto0/2" to="1/1to0/1"/>
    <trip id="per337" depart="674.00" from="2/1to2/0" to="2/1to2/0"/>
    <trip id="per338" depart="676.00" from="2/2to2/1" to="3/2to2/2"/>
    <trip id="per339" depart="678.00" from="1/0to0/0" to="1/0to0/0"/>
    <trip id="per340" depart="680.00" from="2/1to3/1" to="0/2to0/1"/>
    <trip id="per341" depart="682.00" from="0/2to1/2" to="0/1to0/0"/>
    <trip id="per342" depart="684.00" from="0/0to0/1" to="1/2to1/1"/>
    <trip id="per343" depart="686.00" from="2/1to1/1" to="1/1to0/1"/>
    <trip id="per344" depart="688.00" from="1/0to1/1" to="2/2to1/2"/>
    <trip id="per345" depart="690.00" from="2/2to1/2" to="1/2to1/1"/>
    <trip id="per346" depart="692.00" from="2/2to1/2" to="3/1to3/2"/>
    <trip id="per347" depart="694.00" from="3/0to2/0" to="2/1to2/0"/>
    <trip id="per348" depart="696.00" from="2/1to3/1" to="3/1to3/2"/>
    <trip id="per349" depart="698.00" from="1/2to0/2" to="2/0to3/0"/>
    <trip id="per350" depart="700.00" from="2/1to2/2" to="3/1to3/0"/>
    <trip id="per351" depart="702.00" from="3/0to3/1" to="0/1to0/0"/>
    <trip id="per352" depart="704.00" from="0/2to0/1" to="1/1to0/1"/>
    <trip id="per353" depart="706.00" from="2/2to3/2" to="2/0to3/0"/>
    <trip id="per354" depart="708.00" from="1/1to0/1" to="0/1to1/1"/>
    <trip id="per355" depart="710.00" from="2/2to1/2" to="2/2to1/2"/>
    <trip id="per356" depart="712.00" from="3/2to2/2" to="2/0to1/0"/>
    <trip id="per357" depart="714.00" from="2/0to1/0" to="0/1to0/0"/>
    <trip id="per358" depart="716.00" from="0/0to1/0" to="1/2to1/1"/>
    <trip id="per359" depart="718.00" from="1/1to1/0" to="1/0to1/1"/>
    <trip id="per360" depart="720.00" from="0/1to0/2" to="3/2to2/2"/>
    <trip id="per361" depart="722.00" from="3/1to2/1" to="2/1to1/1"/>
    <trip id="per362" depart="724.00" from="3/2to3/1" to="3/2to3/1"/>
    <trip id="per363" depart="726.00" from="2/1to3/1" to="1/0to2/0"/>
    <trip id="per364" depart="728.00" from="0/0to1/0" to="2/2to3/2"/>
    <trip id="per365" depart="730.00" from="1/2to2/2" to="2/1to2/2"/>
    <trip id="per366" depart="732.00" from="3/2to2/2" to="0/2to1/2"/>
    <trip id="per367" depart="734.00" from="2/1to1/1" to="2/1to2/2"/>
    <trip id="per368" depart="736.00" from="2/0to1/0" to="0/1to0/2"/>
    <trip id="per369" depart="738.00" from="1/1to1/2" to="1/1to1/0"/>
    <trip id="per370" depart="740.00" from="2/1to3/1" to="3/1to2/1"/>
    <trip id="per371" depart="742.00" from="1/1to1/0" to="2/2to1/2"/>
    <trip id="per372" depart="744.00" from="1/1to0/1" to="3/2to2/2"/>
    <trip id="per373" depart="746.00" from="3/0to3/1" to="2/0to3/0"/>
    <trip id="per374" depart="748.00" from="1/2to1/1" to="1/1to1/0"/>
    <trip id="per375" depart="750.00" from="1/1to1/0" to="3/2to2/2"/>
    <trip id="per376" depart="752.00" from="1/2to0/2" to="2/0to2/1"/>
    <trip id="per377" depart="754.00" from="Oto0/2" to="2/1to3/1"/>
    <trip id="per378" depart="756.00" from="2/0to2/1" to="1/2to0/2"/>
    <trip id="per379" depart="758.00" from="0/2to1/2" to="1/1to1/2"/>
    <trip id="per380" depart="760.00" from="2/2to3/2" to="2/1to2/0"/>
    <trip id="per381" depart="762.00" from="2/2to3/2" to="1/0to0/0"/>
    <trip id="per382" depart="764.00" from="2/0to3/0" to="3/1to3/2"/>
    <trip id="per383" depart="766.00" from="1/2to1/1" to="2/2to1/2"/>
    <trip id="per384" depart="768.00" from="0/1to1/1" to="3/2to3/1"/>
    <trip id="per385" depart="770.00" from="2/1to2/0" to="1/0to1/1"/>
    <trip id="per386" depart="772.00" from="0/2to0/1" to="2/0to3/0"/>
    <trip id="per387" depart="774.00" from="2/0to3/0" to="0/1to0/2"/>
    <trip id="per388" depart="776.00" from="Oto0/2" to="3/1to3/0"/>
    <trip id="per389" depart="778.00" from="1/2to2/2" to="0/1to1/1"/>
    <trip id="per390" depart="780.00" from="3/1to2/1" to="2/0to1/0"/>
    <trip id="per391" depart="782.00" from="2/2to2/1" to="2/0to1/0"/>
    <trip id="per392" depart="784.00" from="1/0to2/0" to="3/0to3/1"/>
    <trip id="per393" depart="786.00" from="Oto0/2" to="1/0to1/1"/>
    <trip id="per394" depart="788.00" from="2/0to3/0" to="1/1to2/1"/>
    <trip id="per395" depart="790.00" from="3/2to2/2" to="2/0to1/0"/>
    <trip id="per396" depart="792.00" from="3/1to3/0" to="3/1to2/1"/>
    <trip id="per397" depart="794.00" from="1/0to2/0" to="3.0toD"/>
    <trip id="per398" depart="796.00" from="1/2to0/2" to="3/1to3/2"/>
    <trip id="per399" depart="798.00" from="2/0to1/0" to="3/0to2/0"/>
    <trip id="per400" depart="800.00" from="1/0to2/0" to="1/1to0/1"/>
    <trip id="per401" depart="802.00" from="2/1to1/1" to="3/2to3/1"/>
    <trip id="per402" depart="804.00" from="2/0to1/0" to="0/2to0/1"/>
    <trip id="per403" depart="806.00" from="2/0to2/1" to="1/1to1/2"/>
    <trip id="per404" depart="808.00" from="2/0to3/0" to="2/0to3/0"/>
    <trip id="per405" depart="810.00" from="1/2to1/1" to="1/1to1/0"/>
    <trip id="per406" depart="812.00" from="0/2to1/2" to="2/2to1/2"/>
    <trip id="per407" depart="814.00" from="2/1to1/1" to="1/0to1/1"/>
    <trip id="per408" depart="816.00" from="3/0to2/0" to="0/0to1/0"/>
    <trip id="per409" depart="818.00" from="2/2to3/2" to="2/2to1/2"/>
    <trip id="per410" depart="820.00" from="3/0to3/1" to="1/1to2/1"/>
    <trip id="per411" depart="822.00" from="2/1to3/1" to="3/0to2/0"/>
    <trip id="per412" depart="824.00" from="Oto0/2" to="2/0to1/0"/>
    <trip id="per413" depart="826.00" from="0/0to1/0" to="2/0to1/0"/>
    <trip id="per414" depart="828.00" from="2/1to1/1" to="3/1to2/1"/>
    <trip id="per415" depart="830.00" from="3/1to3/0" to="1/2to1/1"/>
    <trip id="per416" depart="832.00" from="2/0to2/1" to="1/2to1/1"/>
    <trip id="per417" depart="834.00" from="2/2to2/1" to="1/2to0/2"/>
    <trip id="per418" depart="836.00" from="2/1to2/2" to="0/2to0/1"/>