<?xml version="1.0" encoding="UTF-8"?>

<!-- generated on Mon Aug 17 00:04:30 2020 by Eclipse SUMO sumo Version v1_6_0+1599-7c2d62c3e8
This data file and the accompanying materials
are made available under the terms of the Eclipse Public License v2.0
which accompanies this distribution, and is available at
http://www.eclipse.org/legal/epl-v20.html
SPDX-License-Identifier: EPL-2.0
-->

<configuration xmlns:xsi="http://www.w3.org/2001/XMLSchema-instance" xsi:noNamespaceSchemaLocation="http://sumo.dlr.de/xsd/sumoConfiguration.xsd">

    <input>
        <net-file value="net.net.xml"/>
		<route-files value="test3.rou.xml"/>
		<additional-files value="poi.xml"/>
    </input>

    <time>
        <begin value="0"/>
        <end value="3600"/>
        <step-length value="1"/>
    </time>

    <report>
        <no-warnings value="True"/>
    </report>

</configuration>
