<routes>
    <vType id="typenormal" accel="0.8" decel="4.5" sigma="0.5" length="5" minGap="2.5" maxSpeed="16.67" guiShape="passenger"/>
    <vType id="typebus" accel="0.8" decel="4.5" sigma="0.5" length="7" minGap="3" maxSpeed="13" guiShape="bus"/>

    <route id="outright" edges="0/2to1/2 1/2to2/2 2/2to3/2 3/2to3/1" />
    <route id="middleright" edges="0/1to1/1 1/1to2/1 2/1to3/1 3/1to3/2" />
    <route id="middleright2" edges="1/0to1/1 1/1to2/1 2/1to2/0" />
    <route id="middleright3" edges="0/0to0/1 0/1to1/1 1/1to1/0 1/0to0/0" />
    <route id="circle" edges="1/2to2/2 2/2to2/1 2/1to2/0 2/0to1/0 1/0to1/1 1/1to1/2" />
    <vehicle id="outright_0" type="typenormal" route="outright" depart="1"/>
    <vehicle id="circle_1" type="typenormal" route="circle" depart="1" color="1,0,0"/>
    <vehicle id="circle_2" type="typenormal" route="circle" depart="2" color="1,0,0"/>
    <vehicle id="middleright_3" type="typenormal" route="middleright" depart="3"/>
    <vehicle id="middleright3st_4" type="typebus" route="middleright3" depart="4" color="blue"/>
    <vehicle id="outright_5" type="typenormal" route="outright" depart="5"/>
    <vehicle id="middleright_6" type="typenormal" route="middleright" depart="5"/>
    <vehicle id="circle_7" type="typenormal" route="circle" depart="5" color="1,0,0"/>
    <vehicle id="circle_8" type="typenormal" route="circle" depart="6" color="1,0,0"/>
    <vehicle id="middleright_9" type="typenormal" route="middleright" depart="7"/>
    <vehicle id="circle_10" type="typenormal" route="circle" depart="7" color="1,0,0"/>
    <vehicle id="outright_11" type="typenormal" route="outright" depart="8"/>
    <vehicle id="outright_12" type="typenormal" route="outright" depart="9"/>
    <vehicle id="circle_13" type="typenormal" route="circle" depart="9" color="1,0,0"/>
    <vehicle id="middleright_14" type="typenormal" route="middleright" depart="11"/>
    <vehicle id="circle_15" type="typenormal" route="circle" depart="11" color="1,0,0"/>
    <vehicle id="middleright_16" type="typenormal" route="middleright" depart="12"/>
    <vehicle id="circle_17" type="typenormal" route="circle" depart="12" color="1,0,0"/>
    <vehicle id="circle_18" type="typenormal" route="circle" depart="14" color="1,0,0"/>
    <vehicle id="outright_19" type="typenormal" route="outright" depart="15"/>
    <vehicle id="middleright_20" type="typenormal" route="middleright" depart="15"/>
    <vehicle id="middleright2st_21" type="typebus" route="middleright2" depart="16" color="blue"/>
    <vehicle id="middleright3st_22" type="typebus" route="middleright3" depart="19" color="blue"/>
    <vehicle id="circle_23" type="typenormal" route="circle" depart="20" color="1,0,0"/>
    <vehicle id="middleright2st_24" type="typebus" route="middleright2" depart="21" color="blue"/>
    <vehicle id="circle_25" type="typenormal" route="circle" depart="22" color="1,0,0"/>
    <vehicle id="middleright3st_26" type="typebus" route="middleright3" depart="23" color="blue"/>
    <vehicle id="circle_27" type="typenormal" route="circle" depart="23" color="1,0,0"/>
    <vehicle id="middleright3st_28" type="typebus" route="middleright3" depart="24" color="blue"/>
    <vehicle id="circle_29" type="typenormal" route="circle" depart="25" color="1,0,0"/>
    <vehicle id="circle_30" type="typenormal" route="circle" depart="26" color="1,0,0"/>
    <vehicle id="middleright2st_31" type="typebus" route="middleright2" depart="27" color="blue"/>
    <vehicle id="circle_32" type="typenormal" route="circle" depart="27" color="1,0,0"/>
    <vehicle id="circle_33" type="typenormal" route="circle" depart="28" color="1,0,0"/>
    <vehicle id="middleright3st_34" type="typebus" route="middleright3" depart="29" color="blue"/>
    <vehicle id="circle_35" type="typenormal" route="circle" depart="29" color="1,0,0"/>
    <vehicle id="circle_36" type="typenormal" route="circle" depart="30" color="1,0,0"/>
    <vehicle id="circle_37" type="typenormal" route="circle" depart="31" color="1,0,0"/>
    <vehicle id="middleright2st_38" type="typebus" route="middleright2" depart="33" color="blue"/>
    <vehicle id="circle_39" type="typenormal" route="circle" depart="33" color="1,0,0"/>
    <vehicle id="middleright3st_40" type="typebus" route="middleright3" depart="35" color="blue"/>
    <vehicle id="circle_41" type="typenormal" route="circle" depart="35" color="1,0,0"/>
    <vehicle id="middleright_42" type="typenormal" route="middleright" depart="37"/>
    <vehicle id="middleright_43" type="typenormal" route="middleright" depart="40"/>
    <vehicle id="circle_44" type="typenormal" route="circle" depart="40" color="1,0,0"/>
    <vehicle id="circle_45" type="typenormal" route="circle" depart="41" color="1,0,0"/>
    <vehicle id="circle_46" type="typenormal" route="circle" depart="42" color="1,0,0"/>
    <vehicle id="circle_47" type="typenormal" route="circle" depart="43" color="1,0,0"/>
    <vehicle id="middleright2st_48" type="typebus" route="middleright2" depart="44" color="blue"/>
    <vehicle id="circle_49" type="typenormal" route="circle" depart="44" color="1,0,0"/>
    <vehicle id="middleright2st_50" type="typebus" route="middleright2" depart="45" color="blue"/>
    <vehicle id="middleright3st_51" type="typebus" route="middleright3" depart="45" color="blue"/>
    <vehicle id="middleright_52" type="typenormal" route="middleright" depart="46"/>
    <vehicle id="circle_53" type="typenormal" route="circle" depart="47" color="1,0,0"/>
    <vehicle id="middleright_54" type="typenormal" route="middleright" depart="48"/>
    <vehicle id="circle_55" type="typenormal" route="circle" depart="49" color="1,0,0"/>
    <vehicle id="circle_56" type="typenormal" route="circle" depart="51" color="1,0,0"/>
    <vehicle id="middleright3st_57" type="typebus" route="middleright3" depart="52" color="blue"/>
    <vehicle id="outright_58" type="typenormal" route="outright" depart="53"/>
    <vehicle id="circle_59" type="typenormal" route="circle" depart="53" color="1,0,0"/>
    <vehicle id="circle_60" type="typenormal" route="circle" depart="54" color="1,0,0"/>
    <vehicle id="middleright2st_61" type="typebus" route="middleright2" depart="58" color="blue"/>
    <vehicle id="middleright_62" type="typenormal" route="middleright" depart="59"/>
    <vehicle id="circle_63" type="typenormal" route="circle" depart="59" color="1,0,0"/>
    <vehicle id="middleright2st_64" type="typebus" route="middleright2" depart="60" color="blue"/>
    <vehicle id="middleright2st_65" type="typebus" route="middleright2" depart="63" color="blue"/>
    <vehicle id="circle_66" type="typenormal" route="circle" depart="64" color="1,0,0"/>
    <vehicle id="circle_67" type="typenormal" route="circle" depart="65" color="1,0,0"/>
    <vehicle id="circle_68" type="typenormal" route="circle" depart="66" color="1,0,0"/>
    <vehicle id="middleright_69" type="typenormal" route="middleright" depart="67"/>
    <vehicle id="circle_70" type="typenormal" route="circle" depart="67" color="1,0,0"/>
    <vehicle id="outright_71" type="typenormal" route="outright" depart="68"/>
    <vehicle id="outright_72" type="typenormal" route="outright" depart="70"/>
    <vehicle id="middleright_73" type="typenormal" route="middleright" depart="70"/>
    <vehicle id="middleright2st_74" type="typebus" route="middleright2" depart="70" color="blue"/>
    <vehicle id="middleright_75" type="typenormal" route="middleright" depart="71"/>
    <vehicle id="middleright2st_76" type="typebus" route="middleright2" depart="71" color="blue"/>
    <vehicle id="middleright3st_77" type="typebus" route="middleright3" depart="71" color="blue"/>
    <vehicle id="circle_78" type="typenormal" route="circle" depart="71" color="1,0,0"/>
    <vehicle id="circle_79" type="typenormal" route="circle" depart="75" color="1,0,0"/>
    <vehicle id="circle_80" type="typenormal" route="circle" depart="76" color="1,0,0"/>
    <vehicle id="middleright3st_81" type="typebus" route="middleright3" depart="77" color="blue"/>
    <vehicle id="circle_82" type="typenormal" route="circle" depart="77" color="1,0,0"/>
    <vehicle id="circle_83" type="typenormal" route="circle" depart="78" color="1,0,0"/>
    <vehicle id="middleright_84" type="typenormal" route="middleright" depart="80"/>
    <vehicle id="middleright3st_85" type="typebus" route="middleright3" depart="80" color="blue"/>
    <vehicle id="middleright_86" type="typenormal" route="middleright" depart="81"/>
    <vehicle id="circle_87" type="typenormal" route="circle" depart="81" color="1,0,0"/>
    <vehicle id="outright_88" type="typenormal" route="outright" depart="82"/>
    <vehicle id="middleright_89" type="typenormal" route="middleright" depart="82"/>
    <vehicle id="middleright2st_90" type="typebus" route="middleright2" depart="83" color="blue"/>
    <vehicle id="circle_91" type="typenormal" route="circle" depart="83" color="1,0,0"/>
    <vehicle id="circle_92" type="typenormal" route="circle" depart="85" color="1,0,0"/>
    <vehicle id="circle_93" type="typenormal" route="circle" depart="88" color="1,0,0"/>
    <vehicle id="middleright3st_94" type="typebus" route="middleright3" depart="89" color="blue"/>
    <vehicle id="middleright3st_95" type="typebus" route="middleright3" depart="90" color="blue"/>
    <vehicle id="circle_96" type="typenormal" route="circle" depart="90" color="1,0,0"/>
    <vehicle id="circle_97" type="typenormal" route="circle" depart="92" color="1,0,0"/>
    <vehicle id="circle_98" type="typenormal" route="circle" depart="93" color="1,0,0"/>
    <vehicle id="circle_99" type="typenormal" route="circle" depart="94" color="1,0,0"/>
    <vehicle id="middleright3st_100" type="typebus" route="middleright3" depart="95" color="blue"/>
    <vehicle id="outright_101" type="typenormal" route="outright" depart="96"/>
    <vehicle id="middleright_102" type="typenormal" route="middleright" depart="96"/>
    <vehicle id="circle_103" type="typenormal" route="circle" depart="97" color="1,0,0"/>
    <vehicle id="middleright_104" type="typenormal" route="middleright" depart="98"/>
    <vehicle id="middleright2st_105" type="typebus" route="middleright2" depart="100" color="blue"/>
    <vehicle id="middleright_106" type="typenormal" route="middleright" depart="101"/>
    <vehicle id="middleright2st_107" type="typebus" route="middleright2" depart="101" color="blue"/>
    <vehicle id="middleright3st_108" type="typebus" route="middleright3" depart="102" color="blue"/>
    <vehicle id="circle_109" type="typenormal" route="circle" depart="104" color="1,0,0"/>
    <vehicle id="circle_110" type="typenormal" route="circle" depart="105" color="1,0,0"/>
    <vehicle id="middleright3st_111" type="typebus" route="middleright3" depart="106" color="blue"/>
    <vehicle id="circle_112" type="typenormal" route="circle" depart="107" color="1,0,0"/>
    <vehicle id="middleright_113" type="typenormal" route="middleright" depart="108"/>
    <vehicle id="circle_114" type="typenormal" route="circle" depart="108" color="1,0,0"/>
    <vehicle id="middleright2st_115" type="typebus" route="middleright2" depart="110" color="blue"/>
    <vehicle id="circle_116" type="typenormal" route="circle" depart="111" color="1,0,0"/>
    <vehicle id="circle_117" type="typenormal" route="circle" depart="113" color="1,0,0"/>
    <vehicle id="middleright_118" type="typenormal" route="middleright" depart="115"/>
    <vehicle id="middleright2st_119" type="typebus" route="middleright2" depart="115" color="blue"/>
    <vehicle id="circle_120" type="typenormal" route="circle" depart="115" color="1,0,0"/>
    <vehicle id="circle_121" type="typenormal" route="circle" depart="117" color="1,0,0"/>
    <vehicle id="middleright_122" type="typenormal" route="middleright" depart="118"/>
    <vehicle id="middleright2st_123" type="typebus" route="middleright2" depart="118" color="blue"/>
    <vehicle id="circle_124" type="typenormal" route="circle" depart="118" color="1,0,0"/>
    <vehicle id="circle_125" type="typenormal" route="circle" depart="120" color="1,0,0"/>
    <vehicle id="middleright2st_126" type="typebus" route="middleright2" depart="121" color="blue"/>
    <vehicle id="circle_127" type="typenormal" route="circle" depart="122" color="1,0,0"/>
    <vehicle id="circle_128" type="typenormal" route="circle" depart="123" color="1,0,0"/>
    <vehicle id="middleright_129" type="typenormal" route="middleright" depart="124"/>
    <vehicle id="circle_130" type="typenormal" route="circle" depart="124" color="1,0,0"/>
    <vehicle id="middleright_131" type="typenormal" route="middleright" depart="125"/>
    <vehicle id="circle_132" type="typenormal" route="circle" depart="125" color="1,0,0"/>
    <vehicle id="middleright2st_133" type="typebus" route="middleright2" depart="126" color="blue"/>
    <vehicle id="circle_134" type="typenormal" route="circle" depart="127" color="1,0,0"/>
    <vehicle id="middleright3st_135" type="typebus" route="middleright3" depart="129" color="blue"/>
    <vehicle id="circle_136" type="typenormal" route="circle" depart="129" color="1,0,0"/>
    <vehicle id="middleright_137" type="typenormal" route="middleright" depart="131"/>
    <vehicle id="circle_138" type="typenormal" route="circle" depart="132" color="1,0,0"/>
    <vehicle id="middleright_139" type="typenormal" route="middleright" depart="134"/>
    <vehicle id="middleright_140" type="typenormal" route="middleright" depart="136"/>
    <vehicle id="circle_141" type="typenormal" route="circle" depart="137" color="1,0,0"/>
    <vehicle id="circle_142" type="typenormal" route="circle" depart="138" color="1,0,0"/>
    <vehicle id="circle_143" type="typenormal" route="circle" depart="140" color="1,0,0"/>
    <vehicle id="middleright2st_144" type="typebus" route="middleright2" depart="143" color="blue"/>
    <vehicle id="middleright_145" type="typenormal" route="middleright" depart="144"/>
    <vehicle id="circle_146" type="typenormal" route="circle" depart="145" color="1,0,0"/>
    <vehicle id="circle_147" type="typenormal" route="circle" depart="146" color="1,0,0"/>
    <vehicle id="middleright_148" type="typenormal" route="middleright" depart="147"/>
    <vehicle id="circle_149" type="typenormal" route="circle" depart="148" color="1,0,0"/>
    <vehicle id="circle_150" type="typenormal" route="circle" depart="149" color="1,0,0"/>
    <vehicle id="middleright3st_151" type="typebus" route="middleright3" depart="150" color="blue"/>
    <vehicle id="circle_152" type="typenormal" route="circle" depart="150" color="1,0,0"/>
    <vehicle id="middleright2st_153" type="typebus" route="middleright2" depart="152" color="blue"/>
    <vehicle id="middleright_154" type="typenormal" route="middleright" depart="153"/>
    <vehicle id="circle_155" type="typenormal" route="circle" depart="153" color="1,0,0"/>
    <vehicle id="circle_156" type="typenormal" route="circle" depart="155" color="1,0,0"/>
    <vehicle id="outright_157" type="typenormal" route="outright" depart="156"/>
    <vehicle id="middleright2st_158" type="typebus" route="middleright2" depart="156" color="blue"/>
    <vehicle id="circle_159" type="typenormal" route="circle" depart="156" color="1,0,0"/>
    <vehicle id="middleright_160" type="typenormal" route="middleright" depart="157"/>
    <vehicle id="middleright2st_161" type="typebus" route="middleright2" depart="158" color="blue"/>
    <vehicle id="circle_162" type="typenormal" route="circle" depart="159" color="1,0,0"/>
    <vehicle id="middleright3st_163" type="typebus" route="middleright3" depart="160" color="blue"/>
    <vehicle id="outright_164" type="typenormal" route="outright" depart="162"/>
    <vehicle id="outright_165" type="typenormal" route="outright" depart="164"/>
    <vehicle id="middleright3st_166" type="typebus" route="middleright3" depart="164" color="blue"/>
    <vehicle id="circle_167" type="typenormal" route="circle" depart="164" color="1,0,0"/>
    <vehicle id="middleright2st_168" type="typebus" route="middleright2" depart="165" color="blue"/>
    <vehicle id="middleright_169" type="typenormal" route="middleright" depart="166"/>
    <vehicle id="middleright3st_170" type="typebus" route="middleright3" depart="166" color="blue"/>
    <vehicle id="outright_171" type="typenormal" route="outright" depart="167"/>
    <vehicle id="circle_172" type="typenormal" route="circle" depart="168" color="1,0,0"/>
    <vehicle id="middleright2st_173" type="typebus" route="middleright2" depart="170" color="blue"/>
    <vehicle id="middleright_174" type="typenormal" route="middleright" depart="171"/>
    <vehicle id="circle_175" type="typenormal" route="circle" depart="171" color="1,0,0"/>
    <vehicle id="middleright3st_176" type="typebus" route="middleright3" depart="174" color="blue"/>
    <vehicle id="middleright3st_177" type="typebus" route="middleright3" depart="175" color="blue"/>
    <vehicle id="outright_178" type="typenormal" route="outright" depart="176"/>
    <vehicle id="circle_179" type="typenormal" route="circle" depart="176" color="1,0,0"/>
    <vehicle id="middleright_180" type="typenormal" route="middleright" depart="177"/>
    <vehicle id="circle_181" type="typenormal" route="circle" depart="177" color="1,0,0"/>
    <vehicle id="circle_182" type="typenormal" route="circle" depart="178" color="1,0,0"/>
    <vehicle id="circle_183" type="typenormal" route="circle" depart="180" color="1,0,0"/>
    <vehicle id="middleright_184" type="typenormal" route="middleright" depart="181"/>
    <vehicle id="middleright2st_185" type="typebus" route="middleright2" depart="181" color="blue"/>
    <vehicle id="middleright_186" type="typenormal" route="middleright" depart="182"/>
    <vehicle id="circle_187" type="typenormal" route="circle" depart="183" color="1,0,0"/>
    <vehicle id="middleright_188" type="typenormal" route="middleright" depart="185"/>
    <vehicle id="circle_189" type="typenormal" route="circle" depart="185" color="1,0,0"/>
    <vehicle id="circle_190" type="typenormal" route="circle" depart="186" color="1,0,0"/>
    <vehicle id="middleright2st_191" type="typebus" route="middleright2" depart="187" color="blue"/>
    <vehicle id="middleright2st_192" type="typebus" route="middleright2" depart="188" color="blue"/>
    <vehicle id="circle_193" type="typenormal" route="circle" depart="188" color="1,0,0"/>
    <vehicle id="circle_194" type="typenormal" route="circle" depart="189" color="1,0,0"/>
    <vehicle id="circle_195" type="typenormal" route="circle" depart="190" color="1,0,0"/>
    <vehicle id="outright_196" type="typenormal" route="outright" depart="191"/>
    <vehicle id="middleright_197" type="typenormal" route="middleright" depart="191"/>
    <vehicle id="circle_198" type="typenormal" route="circle" depart="193" color="1,0,0"/>
    <vehicle id="circle_199" type="typenormal" route="circle" depart="194" color="1,0,0"/>
    <vehicle id="circle_200" type="typenormal" route="circle" depart="195" color="1,0,0"/>
    <vehicle id="middleright2st_201" type="typebus" route="middleright2" depart="198" color="blue"/>
    <vehicle id="circle_202" type="typenormal" route="circle" depart="198" color="1,0,0"/>
    <vehicle id="middleright_203" type="typenormal" route="middleright" depart="199"/>
    <vehicle id="middleright2st_204" type="typebus" route="middleright2" depart="201" color="blue"/>
    <vehicle id="outright_205" type="typenormal" route="outright" depart="203"/>
    <vehicle id="middleright_206" type="typenormal" route="middleright" depart="206"/>
    <vehicle id="outright_207" type="typenormal" route="outright" depart="207"/>
    <vehicle id="middleright2st_208" type="typebus" route="middleright2" depart="207" color="blue"/>
    <vehicle id="middleright2st_209" type="typebus" route="middleright2" depart="209" color="blue"/>
    <vehicle id="circle_210" type="typenormal" route="circle" depart="209" color="1,0,0"/>
    <vehicle id="middleright_211" type="typenormal" route="middleright" depart="210"/>
    <vehicle id="circle_212" type="typenormal" route="circle" depart="210" color="1,0,0"/>
    <vehicle id="middleright_213" type="typenormal" route="middleright" depart="211"/>
    <vehicle id="circle_214" type="typenormal" route="circle" depart="211" color="1,0,0"/>
    <vehicle id="circle_215" type="typenormal" route="circle" depart="215" color="1,0,0"/>
    <vehicle id="middleright_216" type="typenormal" route="middleright" depart="217"/>
    <vehicle id="middleright_217" type="typenormal" route="middleright" depart="218"/>
    <vehicle id="middleright_218" type="typenormal" route="middleright" depart="219"/>
    <vehicle id="middleright3st_219" type="typebus" route="middleright3" depart="219" color="blue"/>
    <vehicle id="circle_220" type="typenormal" route="circle" depart="219" color="1,0,0"/>
    <vehicle id="middleright2st_221" type="typebus" route="middleright2" depart="220" color="blue"/>
    <vehicle id="outright_222" type="typenormal" route="outright" depart="221"/>
    <vehicle id="middleright3st_223" type="typebus" route="middleright3" depart="221" color="blue"/>
    <vehicle id="circle_224" type="typenormal" route="circle" depart="222" color="1,0,0"/>
    <vehicle id="middleright3st_225" type="typebus" route="middleright3" depart="223" color="blue"/>
    <vehicle id="circle_226" type="typenormal" route="circle" depart="223" color="1,0,0"/>
    <vehicle id="circle_227" type="typenormal" route="circle" depart="224" color="1,0,0"/>
    <vehicle id="middleright_228" type="typenormal" route="middleright" depart="225"/>
    <vehicle id="circle_229" type="typenormal" route="circle" depart="225" color="1,0,0"/>
    <vehicle id="middleright_230" type="typenormal" route="middleright" depart="226"/>
    <vehicle id="middleright3st_231" type="typebus" route="middleright3" depart="226" color="blue"/>
    <vehicle id="circle_232" type="typenormal" route="circle" depart="226" color="1,0,0"/>
    <vehicle id="outright_233" type="typenormal" route="outright" depart="227"/>
    <vehicle id="middleright_234" type="typenormal" route="middleright" depart="227"/>
    <vehicle id="middleright2st_235" type="typebus" route="middleright2" depart="227" color="blue"/>
    <vehicle id="circle_236" type="typenormal" route="circle" depart="227" color="1,0,0"/>
    <vehicle id="circle_237" type="typenormal" route="circle" depart="228" color="1,0,0"/>
    <vehicle id="circle_238" type="typenormal" route="circle" depart="231" color="1,0,0"/>
    <vehicle id="outright_239" type="typenormal" route="outright" depart="233"/>
    <vehicle id="circle_240" type="typenormal" route="circle" depart="233" color="1,0,0"/>
    <vehicle id="outright_241" type="typenormal" route="outright" depart="235"/>
    <vehicle id="middleright3st_242" type="typebus" route="middleright3" depart="235" color="blue"/>
    <vehicle id="circle_243" type="typenormal" route="circle" depart="235" color="1,0,0"/>
    <vehicle id="circle_244" type="typenormal" route="circle" depart="237" color="1,0,0"/>
    <vehicle id="middleright_245" type="typenormal" route="middleright" depart="238"/>
    <vehicle id="middleright3st_246" type="typebus" route="middleright3" depart="238" color="blue"/>
    <vehicle id="circle_247" type="typenormal" route="circle" depart="238" color="1,0,0"/>
    <vehicle id="outright_248" type="typenormal" route="outright" depart="239"/>
    <vehicle id="middleright_249" type="typenormal" route="middleright" depart="239"/>
    <vehicle id="middleright2st_250" type="typebus" route="middleright2" depart="239" color="blue"/>
    <vehicle id="circle_251" type="typenormal" route="circle" depart="239" color="1,0,0"/>
    <vehicle id="circle_252" type="typenormal" route="circle" depart="242" color="1,0,0"/>
    <vehicle id="circle_253" type="typenormal" route="circle" depart="243" color="1,0,0"/>
    <vehicle id="circle_254" type="typenormal" route="circle" depart="244" color="1,0,0"/>
    <vehicle id="middleright_255" type="typenormal" route="middleright" depart="245"/>
    <vehicle id="middleright3st_256" type="typebus" route="middleright3" depart="245" color="blue"/>
    <vehicle id="circle_257" type="typenormal" route="circle" depart="245" color="1,0,0"/>
    <vehicle id="circle_258" type="typenormal" route="circle" depart="246" color="1,0,0"/>
    <vehicle id="outright_259" type="typenormal" route="outright" depart="247"/>
    <vehicle id="middleright3st_260" type="typebus" route="middleright3" depart="249" color="blue"/>
    <vehicle id="outright_261" type="typenormal" route="outright" depart="250"/>
    <vehicle id="circle_262" type="typenormal" route="circle" depart="251" color="1,0,0"/>
    <vehicle id="middleright2st_263" type="typebus" route="middleright2" depart="252" color="blue"/>
    <vehicle id="circle_264" type="typenormal" route="circle" depart="252" color="1,0,0"/>
    <vehicle id="circle_265" type="typenormal" route="circle" depart="255" color="1,0,0"/>
    <vehicle id="middleright_266" type="typenormal" route="middleright" depart="256"/>
    <vehicle id="middleright2st_267" type="typebus" route="middleright2" depart="257" color="blue"/>
    <vehicle id="outright_268" type="typenormal" route="outright" depart="258"/>
    <vehicle id="middleright2st_269" type="typebus" route="middleright2" depart="258" color="blue"/>
    <vehicle id="circle_270" type="typenormal" route="circle" depart="258" color="1,0,0"/>
    <vehicle id="middleright_271" type="typenormal" route="middleright" depart="260"/>
    <vehicle id="circle_272" type="typenormal" route="circle" depart="260" color="1,0,0"/>
    <vehicle id="middleright3st_273" type="typebus" route="middleright3" depart="261" color="blue"/>
    <vehicle id="middleright2st_274" type="typebus" route="middleright2" depart="262" color="blue"/>
    <vehicle id="circle_275" type="typenormal" route="circle" depart="262" color="1,0,0"/>
    <vehicle id="middleright2st_276" type="typebus" route="middleright2" depart="263" color="blue"/>
    <vehicle id="circle_277" type="typenormal" route="circle" depart="263" color="1,0,0"/>
    <vehicle id="middleright_278" type="typenormal" route="middleright" depart="264"/>
    <vehicle id="middleright_279" type="typenormal" route="middleright" depart="266"/>
    <vehicle id="circle_280" type="typenormal" route="circle" depart="266" color="1,0,0"/>
    <vehicle id="middleright3st_281" type="typebus" route="middleright3" depart="267" color="blue"/>
    <vehicle id="middleright2st_282" type="typebus" route="middleright2" depart="269" color="blue"/>
    <vehicle id="circle_283" type="typenormal" route="circle" depart="269" color="1,0,0"/>
    <vehicle id="middleright_284" type="typenormal" route="middleright" depart="271"/>
    <vehicle id="middleright2st_285" type="typebus" route="middleright2" depart="272" color="blue"/>
    <vehicle id="middleright2st_286" type="typebus" route="middleright2" depart="273" color="blue"/>
    <vehicle id="circle_287" type="typenormal" route="circle" depart="273" color="1,0,0"/>
    <vehicle id="middleright_288" type="typenormal" route="middleright" depart="274"/>
    <vehicle id="circle_289" type="typenormal" route="circle" depart="274" color="1,0,0"/>
    <vehicle id="middleright2st_290" type="typebus" route="middleright2" depart="276" color="blue"/>
    <vehicle id="circle_291" type="typenormal" route="circle" depart="276" color="1,0,0"/>
    <vehicle id="circle_292" type="typenormal" route="circle" depart="278" color="1,0,0"/>
    <vehicle id="middleright_293" type="typenormal" route="middleright" depart="279"/>
    <vehicle id="middleright3st_294" type="typebus" route="middleright3" depart="280" color="blue"/>
    <vehicle id="circle_295" type="typenormal" route="circle" depart="280" color="1,0,0"/>
    <vehicle id="outright_296" type="typenormal" route="outright" depart="281"/>
    <vehicle id="middleright_297" type="typenormal" route="middleright" depart="282"/>
    <vehicle id="outright_298" type="typenormal" route="outright" depart="283"/>
    <vehicle id="circle_299" type="typenormal" route="circle" depart="283" color="1,0,0"/>
    <vehicle id="middleright_300" type="typenormal" route="middleright" depart="285"/>
    <vehicle id="middleright2st_301" type="typebus" route="middleright2" depart="285" color="blue"/>
    <vehicle id="middleright3st_302" type="typebus" route="middleright3" depart="286" color="blue"/>
    <vehicle id="circle_303" type="typenormal" route="circle" depart="286" color="1,0,0"/>
    <vehicle id="middleright_304" type="typenormal" route="middleright" depart="288"/>
    <vehicle id="middleright2st_305" type="typebus" route="middleright2" depart="288" color="blue"/>
    <vehicle id="circle_306" type="typenormal" route="circle" depart="288" color="1,0,0"/>
    <vehicle id="middleright_307" type="typenormal" route="middleright" depart="289"/>
    <vehicle id="circle_308" type="typenormal" route="circle" depart="290" color="1,0,0"/>
    <vehicle id="circle_309" type="typenormal" route="circle" depart="294" color="1,0,0"/>
    <vehicle id="middleright_310" type="typenormal" route="middleright" depart="295"/>
    <vehicle id="circle_311" type="typenormal" route="circle" depart="295" color="1,0,0"/>
    <vehicle id="middleright_312" type="typenormal" route="middleright" depart="296"/>
    <vehicle id="outright_313" type="typenormal" route="outright" depart="297"/>
    <vehicle id="middleright2st_314" type="typebus" route="middleright2" depart="297" color="blue"/>
    <vehicle id="middleright2st_315" type="typebus" route="middleright2" depart="298" color="blue"/>
    <vehicle id="circle_316" type="typenormal" route="circle" depart="298" color="1,0,0"/>
    <vehicle id="circle_317" type="typenormal" route="circle" depart="300" color="1,0,0"/>
    <vehicle id="middleright_318" type="typenormal" route="middleright" depart="301"/>
    <vehicle id="circle_319" type="typenormal" route="circle" depart="301" color="1,0,0"/>
    <vehicle id="circle_320" type="typenormal" route="circle" depart="304" color="1,0,0"/>
    <vehicle id="middleright3st_321" type="typebus" route="middleright3" depart="305" color="blue"/>