<?xml version="1.0" encoding="UTF-8"?>

<!-- generated on 11/02/21 16:57:11 by Eclipse SUMO netedit Version v1_6_0+1599-7c2d62c3e8
<configuration xmlns:xsi="http://www.w3.org/2001/XMLSchema-instance" xsi:noNamespaceSchemaLocation="http://sumo.dlr.de/xsd/netconvertConfiguration.xsd">

    <input>
        <sumo-net-file value="C:\Users\12611\Desktop\Co-RL\0418\ReinRoute-main\ReinRoute-main\Tlab_SumoRL\network\test_4\net.net.xml"/>
    </input>

    <output>
        <output-file value="C:\Users\12611\Desktop\Co-RL\0418\ReinRoute-main\ReinRoute-main\Tlab_SumoRL\network\test_4\net.net.xml"/>
    </output>

    <processing>
        <geometry.min-radius.fix.railways value="false"/>
        <geometry.max-grade.fix value="false"/>
        <offset.disable-normalization value="true"/>
        <lefthand value="false"/>
    </processing>

    <junctions>
        <no-turnarounds value="true"/>
        <junctions.corner-detail value="0"/>
        <junctions.limit-turn-speed value="-1"/>
        <rectangular-lane-cut value="false"/>
    </junctions>

    <pedestrian>
        <walkingareas value="false"/>
    </pedestrian>

    <report>
        <aggregate-warnings value="5"/>
    </report>

</configuration>
-->

<net version="1.6" xmlns:xsi="http://www.w3.org/2001/XMLSchema-instance" xsi:noNamespaceSchemaLocation="http://sumo.dlr.de/xsd/net_file.xsd">

    <location netOffset="0.00,0.00" convBoundary="-859.66,-146.88,402.62,690.45" origBoundary="0.00,0.00,400.00,400.00" projParameter="!"/>

    <edge id=":0/1_0" function="internal">
        <lane id=":0/1_0_0" index="0" speed="13.90" length="17.83" shape="-844.41,201.60 -848.55,200.83 -851.59,198.50 -853.50,194.64 -854.30,189.22"/>
    </edge>
    <edge id=":0/1_1" function="internal">
        <lane id=":0/1_1_0" index="0" speed="13.90" length="15.59" shape="-844.41,201.60 -847.15,200.82 -849.18,198.47 -850.50,194.56 -851.11,189.09"/>
    </edge>
    <edge id=":0/1_2" function="internal">
        <lane id=":0/1_2_0" index="0" speed="13.90" length="13.70" shape="-844.41,201.60 -845.75,200.81 -846.78,198.44 -847.50,194.49 -847.91,188.96"/>
    </edge>
    <edge id=":0/1_3" function="internal">
        <lane id=":0/1_3_0" index="0" speed="13.90" length="4.67" shape="-844.41,201.60 -845.61,200.80 -846.01,200.00 -845.61,199.20 -844.41,198.40"/>
    </edge>
    <edge id=":0/1_4" function="internal">
        <lane id=":0/1_4_0" index="0" speed="13.89" length="15.47" shape="-853.93,204.60 -854.30,189.22"/>
        <lane id=":0/1_4_1" index="1" speed="13.89" length="15.47" shape="-850.73,204.64 -851.11,189.09"/>
    </edge>
    <edge id=":0/1_6" function="internal">
        <lane id=":0/1_6_0" index="0" speed="13.90" length="15.57" shape="-850.73,204.64 -850.27,199.11 -849.07,195.16 -847.12,192.79 -844.41,192.00"/>
    </edge>
    <edge id=":0/1_7" function="internal">
        <lane id=":0/1_7_0" index="0" speed="13.90" length="12.76" shape="-850.73,204.64 -850.29,200.51 -849.09,197.56 -847.13,195.79 -844.41,195.20"/>
    </edge>
    <edge id=":0/1_8" function="internal">
        <lane id=":0/1_8_0" index="0" speed="13.90" length="10.10" shape="-850.73,204.64 -850.30,201.91 -849.11,199.96 -847.14,198.79 -844.41,198.40"/>
    </edge>
    <edge id=":0/1_9" function="internal">
        <lane id=":0/1_9_0" index="0" speed="13.89" length="15.72" shape="-847.53,204.68 -847.91,188.96"/>
    </edge>
    <edge id=":0/1_10" function="internal">
        <lane id=":0/1_10_0" index="0" speed="13.90" length="13.65" shape="-847.53,204.68 -847.27,199.13 -846.67,195.17 -845.72,192.79 -844.41,192.00"/>
    </edge>
    <edge id=":0/1_11" function="internal">
        <lane id=":0/1_11_0" index="0" speed="13.90" length="10.64" shape="-847.53,204.68 -847.29,200.53 -846.69,197.57 -845.73,195.79 -844.41,195.20"/>
    </edge>
    <edge id=":0/1_12" function="internal">
        <lane id=":0/1_12_0" index="0" speed="13.90" length="7.72" shape="-847.53,204.68 -847.30,201.93 -846.71,199.97 -845.74,198.79 -844.41,198.40"/>
    </edge>
    <edge id=":1/0_0" function="internal">
        <lane id=":1/0_0_0" index="0" speed="13.90" length="4.67" shape="198.40,0.00 199.20,-1.20 200.00,-1.60 200.80,-1.20 201.60,0.00"/>
    </edge>
    <edge id=":1/1_0" function="internal">
        <lane id=":1/1_0_0" index="0" speed="13.90" length="9.03" shape="195.20,207.20 194.85,204.75 193.80,203.00 192.05,201.95 189.60,201.60"/>
    </edge>
    <edge id=":1/1_1" function="internal">
        <lane id=":1/1_1_0" index="0" speed="13.90" length="20.80" shape="195.20,207.20 195.20,186.40"/>
        <lane id=":1/1_1_1" index="1" speed="13.90" length="20.80" shape="198.40,207.20 198.40,186.40"/>
    </edge>
    <edge id=":1/1_3" function="internal">
        <lane id=":1/1_3_0" index="0" speed="13.90" length="5.93" shape="198.40,207.20 198.95,203.35 200.00,201.60"/>
    </edge>
    <edge id=":1/1_4" function="internal">
        <lane id=":1/1_4_0" index="0" speed="13.90" length="2.34" shape="198.40,207.20 199.20,206.00 200.00,205.60"/>
    </edge>
    <edge id=":1/1_18" function="internal">
        <lane id=":1/1_18_0" index="0" speed="13.90" length="8.26" shape="200.00,201.60 200.60,200.60 203.35,198.95 207.20,198.40"/>
    </edge>
    <edge id=":1/1_19" function="internal">
        <lane id=":1/1_19_0" index="0" speed="13.90" length="2.34" shape="200.00,205.60 200.80,206.00 201.60,207.20"/>
    </edge>
    <edge id=":1/1_5" function="internal">
        <lane id=":1/1_5_0" index="0" speed="13.90" length="9.03" shape="207.20,201.60 204.75,201.95 203.00,203.00 201.95,204.75 201.60,207.20"/>
    </edge>
    <edge id=":1/1_6" function="internal">
        <lane id=":1/1_6_0" index="0" speed="13.90" length="17.60" shape="207.20,201.60 189.60,201.60"/>
    </edge>
    <edge id=":1/1_7" function="internal">
        <lane id=":1/1_7_0" index="0" speed="13.90" length="8.98" shape="207.20,201.60 203.35,200.65 200.60,197.80 200.25,196.80"/>
    </edge>
    <edge id=":1/1_8" function="internal">
        <lane id=":1/1_8_0" index="0" speed="13.90" length="2.34" shape="207.20,201.60 206.00,200.80 205.60,200.00"/>
    </edge>
    <edge id=":1/1_20" function="internal">
        <lane id=":1/1_20_0" index="0" speed="13.90" length="10.64" shape="200.25,196.80 198.95,193.05 198.40,186.40"/>
    </edge>
    <edge id=":1/1_21" function="internal">
        <lane id=":1/1_21_0" index="0" speed="13.90" length="2.34" shape="205.60,200.00 206.00,199.20 207.20,198.40"/>
    </edge>
    <edge id=":1/1_9" function="internal">
        <lane id=":1/1_9_0" index="0" speed="13.90" length="9.03" shape="201.60,186.40 201.95,188.85 203.00,190.60 204.75,191.65 207.20,192.00"/>
    </edge>
    <edge id=":1/1_10" function="internal">
        <lane id=":1/1_10_0" index="0" speed="13.90" length="20.80" shape="201.60,186.40 201.60,207.20"/>
    </edge>
    <edge id=":1/1_11" function="internal">
        <lane id=":1/1_11_0" index="0" speed="13.90" length="8.68" shape="201.60,186.40 200.85,193.05 200.00,194.84"/>
    </edge>
    <edge id=":1/1_12" function="internal">
        <lane id=":1/1_12_0" index="0" speed="13.90" length="2.34" shape="201.60,186.40 200.80,187.60 200.00,188.00"/>
    </edge>
    <edge id=":1/1_22" function="internal">
        <lane id=":1/1_22_0" index="0" speed="13.90" length="13.32" shape="200.00,194.84 198.60,197.80 194.85,200.65 189.60,201.60"/>
    </edge>
    <edge id=":1/1_23" function="internal">
        <lane id=":1/1_23_0" index="0" speed="13.90" length="2.34" shape="200.00,188.00 199.20,187.60 198.40,186.40"/>
    </edge>
    <edge id=":1/1_13" function="internal">
        <lane id=":1/1_13_0" index="0" speed="13.90" length="9.03" shape="189.60,192.00 192.05,191.65 193.80,190.60 194.85,188.85 195.20,186.40"/>
    </edge>
    <edge id=":1/1_14" function="internal">
        <lane id=":1/1_14_0" index="0" speed="13.90" length="17.60" shape="189.60,192.00 207.20,192.00"/>
        <lane id=":1/1_14_1" index="1" speed="13.90" length="17.60" shape="189.60,195.20 207.20,195.20"/>
    </edge>
    <edge id=":1/1_16" function="internal">
        <lane id=":1/1_16_0" index="0" speed="13.90" length="7.89" shape="189.60,198.40 194.85,198.95 197.24,200.00"/>
    </edge>
    <edge id=":1/1_17" function="internal">
        <lane id=":1/1_17_0" index="0" speed="13.90" length="2.34" shape="189.60,198.40 190.80,199.20 191.20,200.00"/>
    </edge>
    <edge id=":1/1_24" function="internal">
        <lane id=":1/1_24_0" index="0" speed="13.90" length="8.97" shape="197.24,200.00 198.60,200.60 200.85,203.35 201.60,207.20"/>
    </edge>
    <edge id=":1/1_25" function="internal">
        <lane id=":1/1_25_0" index="0" speed="13.90" length="2.34" shape="191.20,200.00 190.80,200.80 189.60,201.60"/>
    </edge>
    <edge id=":1/2_0" function="internal">
        <lane id=":1/2_0_0" index="0" speed="13.90" length="4.67" shape="201.60,400.00 200.80,401.20 200.00,401.60 199.20,401.20 198.40,400.00"/>
    </edge>
    <edge id=":2/1_0" function="internal">
        <lane id=":2/1_0_0" index="0" speed="13.90" length="4.67" shape="402.62,198.40 403.82,199.20 404.22,200.00 403.82,200.80 402.62,201.60"/>
    </edge>
    <edge id=":gneJ6_0" function="internal">
        <lane id=":gneJ6_0_0" index="0" speed="13.90" length="9.01" shape="-447.62,186.39 -447.24,188.84 -446.18,190.60 -444.44,191.65 -442.02,192.00"/>
    </edge>
    <edge id=":gneJ6_1" function="internal">
        <lane id=":gneJ6_1_0" index="0" speed="13.90" length="11.67" shape="-450.82,186.44 -450.24,188.87 -448.58,190.61 -445.84,191.65 -442.02,192.00"/>
    </edge>
    <edge id=":gneJ6_2" function="internal">
        <lane id=":gneJ6_2_0" index="0" speed="13.90" length="14.27" shape="-456.29,192.00 -442.02,192.00"/>
        <lane id=":gneJ6_2_1" index="1" speed="13.90" length="14.27" shape="-456.29,195.20 -442.02,195.20"/>
        <lane id=":gneJ6_2_2" index="2" speed="13.90" length="14.27" shape="-456.29,198.40 -442.02,198.40"/>
    </edge>

    <edge id="0/1to1/1" from="0/1" to="gneJ6" priority="-1" length="398.00">
        <lane id="0/1to1/1_0" index="0" speed="13.90" length="398.00" shape="-844.41,192.00 -456.29,192.00"/>
        <lane id="0/1to1/1_1" index="1" speed="13.90" length="398.00" shape="-844.41,195.20 -456.29,195.20"/>
        <lane id="0/1to1/1_2" index="2" speed="13.90" length="398.00" shape="-844.41,198.40 -456.29,198.40"/>
    </edge>
    <edge id="0/1to3/1" from="0/1" to="gneJ1" priority="-1">
        <lane id="0/1to3/1_0" index="0" speed="13.89" length="336.05" shape="-854.30,189.22 -867.65,-146.56"/>
        <lane id="0/1to3/1_1" index="1" speed="13.89" length="336.05" shape="-851.11,189.09 -864.46,-146.69"/>
        <lane id="0/1to3/1_2" index="2" speed="13.89" length="336.05" shape="-847.91,188.96 -861.26,-146.82"/>
    </edge>
    <edge id="1/0to1/1" from="1/0" to="1/1" priority="-1">
        <lane id="1/0to1/1_0" index="0" speed="13.90" length="186.40" shape="201.60,0.00 201.60,186.40"/>
    </edge>
    <edge id="1/1to0/1" from="1/1" to="0/1" priority="-1">
        <lane id="1/1to0/1_0" index="0" speed="13.90" length="1034.01" shape="189.60,201.60 -844.41,201.60"/>
    </edge>
    <edge id="1/1to1/4" from="gneJ6" to="1/1" priority="-1">
        <lane id="1/1to1/4_0" index="0" speed="13.90" length="631.62" shape="-442.02,192.00 189.60,192.00"/>
        <lane id="1/1to1/4_1" index="1" speed="13.90" length="631.62" shape="-442.02,195.20 189.60,195.20"/>
        <lane id="1/1to1/4_2" index="2" speed="13.90" length="631.62" shape="-442.02,198.40 189.60,198.40"/>
    </edge>
    <edge id="1/2to1/1" from="1/2" to="1/1" priority="-1">
        <lane id="1/2to1/1_0" index="0" speed="13.90" length="192.80" shape="195.20,400.00 195.20,207.20"/>
        <lane id="1/2to1/1_1" index="1" speed="13.90" length="192.80" shape="198.40,400.00 198.40,207.20"/>
    </edge>
    <edge id="1/4to1/0" from="1/1" to="1/0" priority="-1">
        <lane id="1/4to1/0_0" index="0" speed="13.90" length="186.40" shape="195.20,186.40 195.20,0.00"/>
        <lane id="1/4to1/0_1" index="1" speed="13.90" length="186.40" shape="198.40,186.40 198.40,0.00"/>
    </edge>
    <edge id="1/4to1/2" from="1/1" to="1/2" priority="-1">
        <lane id="1/4to1/2_0" index="0" speed="13.90" length="192.80" shape="201.60,207.20 201.60,400.00"/>
    </edge>
    <edge id="1/4to2/1" from="1/1" to="2/1" priority="-1" shape="200.00,200.00 400.00,200.00">
        <lane id="1/4to2/1_0" index="0" speed="13.90" length="195.42" shape="207.20,192.00 402.62,192.00"/>
        <lane id="1/4to2/1_1" index="1" speed="13.90" length="195.42" shape="207.20,195.20 402.62,195.20"/>
        <lane id="1/4to2/1_2" index="2" speed="13.90" length="195.42" shape="207.20,198.40 402.62,198.40"/>
    </edge>
    <edge id="2/1to1/1" from="2/1" to="1/1" priority="-1" shape="400.00,200.00 200.00,200.00">
        <lane id="2/1to1/1_0" index="0" speed="13.90" length="195.42" shape="402.62,201.60 207.20,201.60"/>
    </edge>
    <edge id="3/0to0/1" from="gneJ0" to="0/1" priority="-1">
        <lane id="3/0to0/1_0" index="0" speed="13.89" length="485.79" shape="-859.97,690.35 -853.93,204.60"/>
        <lane id="3/0to0/1_1" index="1" speed="13.89" length="485.79" shape="-856.77,690.39 -850.73,204.64"/>
        <lane id="3/0to0/1_2" index="2" speed="13.89" length="485.79" shape="-853.57,690.43 -847.53,204.68"/>
    </edge>
    <edge id="gneE1" from="gneJ4" to="gneJ6" priority="-1">
        <lane id="gneE1_0" index="0" speed="13.89" length="331.35" shape="-453.04,-144.92 -447.62,186.39"/>
        <lane id="gneE1_1" index="1" speed="13.89" length="331.35" shape="-456.24,-144.87 -450.82,186.44"/>
    </edge>

    <tlLogic id="0/1" type="static" programID="0" offset="0">
        <phase duration="42" state="GGGGrrrrrrrrr"/>
        <phase duration="3"  state="yyyyrrrrrrrrr"/>
        <phase duration="42" state="rrrrGGgggGGGG"/>
        <phase duration="3"  state="rrrryyyyyyyyy"/>
    </tlLogic>
    <tlLogic id="1/0" type="static" programID="0" offset="0">
        <phase duration="82" state="G"/>
        <phase duration="3"  state="y"/>
        <phase duration="5"  state="r"/>
    </tlLogic>
    <tlLogic id="1/1" type="static" programID="0" offset="0">
        <phase duration="42" state="rrrrrGGggrrrrGGGGgg"/>
        <phase duration="3"  state="rrrrryyyyrrrryyyyyy"/>
        <phase duration="42" state="GGGggrrrrGGggrrrrrr"/>
        <phase duration="3"  state="yyyyyrrrryyyyrrrrrr"/>
    </tlLogic>
    <tlLogic id="1/2" type="static" programID="0" offset="0">
        <phase duration="82" state="G"/>
        <phase duration="3"  state="y"/>
        <phase duration="5"  state="r"/>
    </tlLogic>
    <tlLogic id="gneJ15" type="static" programID="0" offset="0">
        <phase duration="82" state="G"/>
        <phase duration="3"  state="y"/>
        <phase duration="5"  state="r"/>
    </tlLogic>

    <junction id="0/1" type="traffic_light" x="-845.87" y="200.00" incLanes="1/1to0/1_0 3/0to0/1_0 3/0to0/1_1 3/0to0/1_2" intLanes=":0/1_0_0 :0/1_1_0 :0/1_2_0 :0/1_3_0 :0/1_4_0 :0/1_4_1 :0/1_6_0 :0/1_7_0 :0/1_8_0 :0/1_9_0 :0/1_10_0 :0/1_11_0 :0/1_12_0" shape="-844.41,203.20 -844.41,190.40 -846.31,188.90 -855.90,189.28 -855.53,204.58 -845.93,204.70">
        <request index="0"  response="0000000000000" foes="1111111110000" cont="0"/>
        <request index="1"  response="0000000000000" foes="1111111110000" cont="0"/>
        <request index="2"  response="0000000000000" foes="1111111110000" cont="0"/>
        <request index="3"  response="1110111000000" foes="1110111000000" cont="0"/>
        <request index="4"  response="0000000000111" foes="0000000000111" cont="0"/>
        <request index="5"  response="0000000000111" foes="0000000000111" cont="0"/>
        <request index="6"  response="0011000000111" foes="0011000001111" cont="0"/>
        <request index="7"  response="0101000000111" foes="0101000001111" cont="0"/>
        <request index="8"  response="1001000000111" foes="1001000001111" cont="0"/>
        <request index="9"  response="0000000000111" foes="0000111000111" cont="0"/>
        <request index="10" response="0000000000111" foes="0000001001111" cont="0"/>
        <request index="11" response="0000000000111" foes="0000010001111" cont="0"/>
        <request index="12" response="0000000000111" foes="0000100001111" cont="0"/>
    </junction>
    <junction id="1/0" type="traffic_light" x="200.00" y="0.00" incLanes="1/4to1/0_0 1/4to1/0_1" intLanes=":1/0_0_0" shape="200.00,0.00 193.60,0.00 200.00,0.00">
        <request index="0" response="0" foes="0" cont="0"/>
    </junction>
    <junction id="1/1" type="traffic_light" x="200.00" y="200.00" incLanes="1/2to1/1_0 1/2to1/1_1 2/1to1/1_0 1/0to1/1_0 1/1to1/4_0 1/1to1/4_1 1/1to1/4_2" intLanes=":1/1_0_0 :1/1_1_0 :1/1_1_1 :1/1_18_0 :1/1_19_0 :1/1_5_0 :1/1_6_0 :1/1_20_0 :1/1_21_0 :1/1_9_0 :1/1_10_0 :1/1_22_0 :1/1_23_0 :1/1_13_0 :1/1_14_0 :1/1_14_1 :1/1_24_0 :1/1_25_0" shape="193.60,207.20 203.20,207.20 207.20,203.20 207.20,190.40 203.20,186.40 193.60,186.40 189.60,190.40 189.60,203.20">
        <request index="0"  response="000000000001000000" foes="100000100001000000" cont="0"/>
        <request index="1"  response="011110000011000000" foes="011111100011000000" cont="0"/>
        <request index="2"  response="011110000011000000" foes="011111100011000000" cont="0"/>
        <request index="3"  response="010000010011000000" foes="010000010111000000" cont="1"/>
        <request index="4"  response="010000010000100000" foes="010000010000100000" cont="1"/>
        <request index="5"  response="000000000000000000" foes="010000010000010000" cont="0"/>
        <request index="6"  response="000000100000001000" foes="110000110000001111" cont="0"/>
        <request index="7"  response="001100100000001000" foes="001101110000001110" cont="1"/>
        <request index="8"  response="000000000000001000" foes="000000000000001000" cont="1"/>
        <request index="9"  response="001100000000000000" foes="001100000000000000" cont="0"/>
        <request index="10" response="011100000011100000" foes="011100000011111000" cont="0"/>
        <request index="11" response="011100000011000111" foes="111100000011000111" cont="1"/>
        <request index="12" response="000000000010000110" foes="000000000010000110" cont="1"/>
        <request index="13" response="000000000000000000" foes="000000000000000110" cont="0"/>
        <request index="14" response="000000100000000000" foes="000000111010000110" cont="0"/>
        <request index="15" response="000000100000000000" foes="000000111010000110" cont="0"/>
        <request index="16" response="000000100001101000" foes="000000110001111110" cont="1"/>
        <request index="17" response="000000100001000001" foes="000000100001000001" cont="1"/>
    </junction>
    <junction id="1/2" type="traffic_light" x="200.00" y="400.00" incLanes="1/4to1/2_0" intLanes=":1/2_0_0" shape="200.00,400.00 203.20,400.00 200.00,400.00">
        <request index="0" response="0" foes="0" cont="0"/>
    </junction>
    <junction id="2/1" type="traffic_light" x="402.62" y="201.28" incLanes="1/4to2/1_0 1/4to2/1_1 1/4to2/1_2" intLanes=":2/1_0_0" shape="402.62,200.00 402.62,190.40 402.62,200.00">
        <request index="0" response="0" foes="0" cont="0"/>
    </junction>
    <junction id="gneJ0" type="dead_end" x="-851.97" y="690.45" incLanes="" intLanes="" shape="-851.97,690.45 -861.57,690.33"/>
    <junction id="gneJ1" type="dead_end" x="-859.66" y="-146.88" incLanes="0/1to3/1_0 0/1to3/1_1 0/1to3/1_2" intLanes="" shape="-869.25,-146.50 -859.66,-146.88"/>
    <junction id="gneJ4" type="dead_end" x="-457.84" y="-144.84" incLanes="" intLanes="" shape="-457.84,-144.84 -451.44,-144.94"/>
    <junction id="gneJ6" type="priority" x="-452.20" y="200.00" incLanes="gneE1_0 gneE1_1 0/1to1/1_0 0/1to1/1_1 0/1to1/1_2" intLanes=":gneJ6_0_0 :gneJ6_1_0 :gneJ6_2_0 :gneJ6_2_1 :gneJ6_2_2" shape="-442.02,200.00 -442.02,190.40 -446.02,186.36 -452.42,186.47 -456.29,190.40 -456.29,200.00">
        <request index="0" response="11110" foes="11110" cont="0"/>
        <request index="1" response="11100" foes="11101" cont="0"/>
        <request index="2" response="00000" foes="00011" cont="0"/>
        <request index="3" response="00000" foes="00011" cont="0"/>
        <request index="4" response="00000" foes="00011" cont="0"/>
    </junction>

    <junction id=":1/1_18_0" type="internal" x="200.00" y="201.60" incLanes=":1/1_3_0 1/0to1/1_0" intLanes=":1/1_6_0 :1/1_7_0 :1/1_8_0 :1/1_9_0 :1/1_10_0 :1/1_14_0 :1/1_14_1 :1/1_16_0"/>
    <junction id=":1/1_19_0" type="internal" x="200.00" y="205.60" incLanes=":1/1_4_0 1/0to1/1_0 1/1to1/4_2 2/1to1/1_0" intLanes=":1/1_5_0 :1/1_10_0 :1/1_16_0"/>
    <junction id=":1/1_20_0" type="internal" x="200.25" y="196.80" incLanes=":1/1_7_0 1/1to1/4_0 1/1to1/4_1" intLanes=":1/1_1_0 :1/1_1_1 :1/1_3_0 :1/1_10_0 :1/1_11_0 :1/1_12_0 :1/1_13_0 :1/1_14_0 :1/1_14_1"/>
    <junction id=":1/1_21_0" type="internal" x="205.60" y="200.00" incLanes=":1/1_8_0 1/0to1/1_0 1/1to1/4_0 1/1to1/4_1 1/2to1/1_1" intLanes=":1/1_3_0 :1/1_9_0 :1/1_14_0 :1/1_14_1"/>
    <junction id=":1/1_22_0" type="internal" x="200.00" y="194.84" incLanes=":1/1_11_0 1/2to1/1_0 1/2to1/1_1" intLanes=":1/1_0_0 :1/1_1_0 :1/1_1_1 :1/1_6_0 :1/1_7_0 :1/1_14_0 :1/1_14_1 :1/1_16_0 :1/1_17_0"/>
    <junction id=":1/1_23_0" type="internal" x="200.00" y="188.00" incLanes=":1/1_12_0 1/1to1/4_0 1/2to1/1_0 1/2to1/1_1 2/1to1/1_0" intLanes=":1/1_1_0 :1/1_1_1 :1/1_7_0 :1/1_13_0"/>
    <junction id=":1/1_24_0" type="internal" x="197.24" y="200.00" incLanes=":1/1_16_0 2/1to1/1_0" intLanes=":1/1_1_0 :1/1_1_1 :1/1_3_0 :1/1_4_0 :1/1_5_0 :1/1_6_0 :1/1_10_0 :1/1_11_0"/>
    <junction id=":1/1_25_0" type="internal" x="191.20" y="200.00" incLanes=":1/1_17_0 1/0to1/1_0 1/2to1/1_0 2/1to1/1_0" intLanes=":1/1_0_0 :1/1_6_0 :1/1_11_0"/>

    <connection from="0/1to1/1" to="1/1to1/4" fromLane="0" toLane="0" via=":gneJ6_2_0" dir="s" state="M"/>
    <connection from="0/1to1/1" to="1/1to1/4" fromLane="1" toLane="1" via=":gneJ6_2_1" dir="s" state="M"/>
    <connection from="0/1to1/1" to="1/1to1/4" fromLane="2" toLane="2" via=":gneJ6_2_2" dir="s" state="M"/>
    <connection from="1/0to1/1" to="1/4to2/1" fromLane="0" toLane="0" via=":1/1_9_0" tl="1/1" linkIndex="9" dir="r" state="o"/>
    <connection from="1/0to1/1" to="1/4to1/2" fromLane="0" toLane="0" via=":1/1_10_0" tl="1/1" linkIndex="10" dir="s" state="o"/>
    <connection from="1/0to1/1" to="1/1to0/1" fromLane="0" toLane="0" via=":1/1_11_0" tl="1/1" linkIndex="11" dir="l" state="o"/>
    <connection from="1/0to1/1" to="1/4to1/0" fromLane="0" toLane="1" via=":1/1_12_0" tl="1/1" linkIndex="12" dir="t" state="o"/>
    <connection from="1/1to0/1" to="0/1to3/1" fromLane="0" toLane="0" via=":0/1_0_0" tl="0/1" linkIndex="0" dir="l" state="O"/>
    <connection from="1/1to0/1" to="0/1to3/1" fromLane="0" toLane="1" via=":0/1_1_0" tl="0/1" linkIndex="1" dir="l" state="O"/>
    <connection from="1/1to0/1" to="0/1to3/1" fromLane="0" toLane="2" via=":0/1_2_0" tl="0/1" linkIndex="2" dir="l" state="O"/>
    <connection from="1/1to0/1" to="0/1to1/1" fromLane="0" toLane="2" via=":0/1_3_0" tl="0/1" linkIndex="3" dir="t" state="o"/>
    <connection from="1/1to1/4" to="1/4to1/0" fromLane="0" toLane="0" via=":1/1_13_0" tl="1/1" linkIndex="13" dir="r" state="O"/>
    <connection from="1/1to1/4" to="1/4to2/1" fromLane="0" toLane="0" via=":1/1_14_0" tl="1/1" linkIndex="14" dir="s" state="O"/>
    <connection from="1/1to1/4" to="1/4to2/1" fromLane="1" toLane="1" via=":1/1_14_1" tl="1/1" linkIndex="15" dir="s" state="O"/>
    <connection from="1/1to1/4" to="1/4to1/2" fromLane="2" toLane="0" via=":1/1_16_0" tl="1/1" linkIndex="17" dir="l" state="o"/>
    <connection from="1/1to1/4" to="1/1to0/1" fromLane="2" toLane="0" via=":1/1_17_0" tl="1/1" linkIndex="18" dir="t" state="o"/>
    <connection from="1/2to1/1" to="1/1to0/1" fromLane="0" toLane="0" via=":1/1_0_0" tl="1/1" linkIndex="0" dir="r" state="o"/>
    <connection from="1/2to1/1" to="1/4to1/0" fromLane="0" toLane="0" via=":1/1_1_0" tl="1/1" linkIndex="1" dir="s" state="o"/>
    <connection from="1/2to1/1" to="1/4to1/0" fromLane="1" toLane="1" via=":1/1_1_1" tl="1/1" linkIndex="2" dir="s" state="o"/>
    <connection from="1/2to1/1" to="1/4to2/1" fromLane="1" toLane="2" via=":1/1_3_0" tl="1/1" linkIndex="3" dir="l" state="o"/>
    <connection from="1/2to1/1" to="1/4to1/2" fromLane="1" toLane="0" via=":1/1_4_0" tl="1/1" linkIndex="4" dir="t" state="o"/>
    <connection from="1/4to1/0" to="1/0to1/1" fromLane="1" toLane="0" via=":1/0_0_0" tl="1/0" linkIndex="0" dir="t" state="O"/>
    <connection from="1/4to1/2" to="1/2to1/1" fromLane="0" toLane="1" via=":1/2_0_0" tl="1/2" linkIndex="0" dir="t" state="O"/>
    <connection from="1/4to2/1" to="2/1to1/1" fromLane="2" toLane="0" via=":2/1_0_0" tl="gneJ15" linkIndex="0" dir="t" state="O"/>
    <connection from="2/1to1/1" to="1/4to1/2" fromLane="0" toLane="0" via=":1/1_5_0" tl="1/1" linkIndex="5" dir="r" state="O"/>
    <connection from="2/1to1/1" to="1/1to0/1" fromLane="0" toLane="0" via=":1/1_6_0" tl="1/1" linkIndex="6" dir="s" state="O"/>
    <connection from="2/1to1/1" to="1/4to1/0" fromLane="0" toLane="1" via=":1/1_7_0" tl="1/1" linkIndex="7" dir="l" state="o"/>
    <connection from="2/1to1/1" to="1/4to2/1" fromLane="0" toLane="2" via=":1/1_8_0" tl="1/1" linkIndex="8" dir="t" state="o"/>
    <connection from="3/0to0/1" to="0/1to3/1" fromLane="0" toLane="0" via=":0/1_4_0" tl="0/1" linkIndex="4" dir="s" state="o"/>
    <connection from="3/0to0/1" to="0/1to3/1" fromLane="1" toLane="1" via=":0/1_4_1" tl="0/1" linkIndex="5" dir="s" state="o"/>
    <connection from="3/0to0/1" to="0/1to1/1" fromLane="1" toLane="0" via=":0/1_6_0" tl="0/1" linkIndex="6" dir="l" state="o"/>
    <connection from="3/0to0/1" to="0/1to1/1" fromLane="1" toLane="1" via=":0/1_7_0" tl="0/1" linkIndex="7" dir="l" state="o"/>
    <connection from="3/0to0/1" to="0/1to1/1" fromLane="1" toLane="2" via=":0/1_8_0" tl="0/1" linkIndex="8" dir="l" state="o"/>
    <connection from="3/0to0/1" to="0/1to3/1" fromLane="2" toLane="2" via=":0/1_9_0" tl="0/1" linkIndex="9" dir="s" state="o"/>
    <connection from="3/0to0/1" to="0/1to1/1" fromLane="2" toLane="0" via=":0/1_10_0" tl="0/1" linkIndex="10" dir="l" state="o"/>
    <connection from="3/0to0/1" to="0/1to1/1" fromLane="2" toLane="1" via=":0/1_11_0" tl="0/1" linkIndex="11" dir="l" state="o"/>
    <connection from="3/0to0/1" to="0/1to1/1" fromLane="2" toLane="2" via=":0/1_12_0" tl="0/1" linkIndex="12" dir="l" state="o"/>
    <connection from="gneE1" to="1/1to1/4" fromLane="0" toLane="0" via=":gneJ6_0_0" dir="r" state="m"/>
    <connection from="gneE1" to="1/1to1/4" fromLane="1" toLane="0" via=":gneJ6_1_0" dir="r" state="m"/>

    <connection from=":0/1_0" to="0/1to3/1" fromLane="0" toLane="0" dir="l" state="M"/>
    <connection from=":0/1_1" to="0/1to3/1" fromLane="0" toLane="1" dir="l" state="M"/>
    <connection from=":0/1_2" to="0/1to3/1" fromLane="0" toLane="2" dir="l" state="M"/>
    <connection from=":0/1_3" to="0/1to1/1" fromLane="0" toLane="2" dir="t" state="M"/>
    <connection from=":0/1_4" to="0/1to3/1" fromLane="0" toLane="0" dir="s" state="M"/>
    <connection from=":0/1_4" to="0/1to3/1" fromLane="1" toLane="1" dir="s" state="M"/>
    <connection from=":0/1_6" to="0/1to1/1" fromLane="0" toLane="0" dir="l" state="M"/>
    <connection from=":0/1_7" to="0/1to1/1" fromLane="0" toLane="1" dir="l" state="M"/>
    <connection from=":0/1_8" to="0/1to1/1" fromLane="0" toLane="2" dir="l" state="M"/>
    <connection from=":0/1_9" to="0/1to3/1" fromLane="0" toLane="2" dir="s" state="M"/>
    <connection from=":0/1_10" to="0/1to1/1" fromLane="0" toLane="0" dir="l" state="M"/>
    <connection from=":0/1_11" to="0/1to1/1" fromLane="0" toLane="1" dir="l" state="M"/>
    <connection from=":0/1_12" to="0/1to1/1" fromLane="0" toLane="2" dir="l" state="M"/>
    <connection from=":1/0_0" to="1/0to1/1" fromLane="0" toLane="0" dir="t" state="M"/>
    <connection from=":1/1_0" to="1/1to0/1" fromLane="0" toLane="0" dir="r" state="M"/>
    <connection from=":1/1_1" to="1/4to1/0" fromLane="0" toLane="0" dir="s" state="M"/>
    <connection from=":1/1_1" to="1/4to1/0" fromLane="1" toLane="1" dir="s" state="M"/>
    <connection from=":1/1_3" to="1/4to2/1" fromLane="0" toLane="2" via=":1/1_18_0" dir="l" state="m"/>
    <connection from=":1/1_18" to="1/4to2/1" fromLane="0" toLane="2" dir="l" state="M"/>
    <connection from=":1/1_4" to="1/4to1/2" fromLane="0" toLane="0" via=":1/1_19_0" dir="t" state="m"/>
    <connection from=":1/1_19" to="1/4to1/2" fromLane="0" toLane="0" dir="t" state="M"/>
    <connection from=":1/1_5" to="1/4to1/2" fromLane="0" toLane="0" dir="r" state="M"/>
    <connection from=":1/1_6" to="1/1to0/1" fromLane="0" toLane="0" dir="s" state="M"/>
    <connection from=":1/1_7" to="1/4to1/0" fromLane="0" toLane="1" via=":1/1_20_0" dir="l" state="m"/>
    <connection from=":1/1_20" to="1/4to1/0" fromLane="0" toLane="1" dir="l" state="M"/>
    <connection from=":1/1_8" to="1/4to2/1" fromLane="0" toLane="2" via=":1/1_21_0" dir="t" state="m"/>
    <connection from=":1/1_21" to="1/4to2/1" fromLane="0" toLane="2" dir="t" state="M"/>
    <connection from=":1/1_9" to="1/4to2/1" fromLane="0" toLane="0" dir="r" state="M"/>
    <connection from=":1/1_10" to="1/4to1/2" fromLane="0" toLane="0" dir="s" state="M"/>
    <connection from=":1/1_11" to="1/1to0/1" fromLane="0" toLane="0" via=":1/1_22_0" dir="l" state="m"/>
    <connection from=":1/1_22" to="1/1to0/1" fromLane="0" toLane="0" dir="l" state="M"/>
    <connection from=":1/1_12" to="1/4to1/0" fromLane="0" toLane="1" via=":1/1_23_0" dir="t" state="m"/>
    <connection from=":1/1_23" to="1/4to1/0" fromLane="0" toLane="1" dir="t" state="M"/>
    <connection from=":1/1_13" to="1/4to1/0" fromLane="0" toLane="0" dir="r" state="M"/>
    <connection from=":1/1_14" to="1/4to2/1" fromLane="0" toLane="0" dir="s" state="M"/>
    <connection from=":1/1_14" to="1/4to2/1" fromLane="1" toLane="1" dir="s" state="M"/>