<?xml version="1.0" encoding="UTF-8"?>

<!-- generated on 12/13/20 00:43:19 by Eclipse SUMO netedit Version v1_6_0+1599-7c2d62c3e8
<configuration xmlns:xsi="http://www.w3.org/2001/XMLSchema-instance" xsi:noNamespaceSchemaLocation="http://sumo.dlr.de/xsd/netconvertConfiguration.xsd">

    <input>
        <sumo-net-file value="C:\Users\12611\Desktop\RL_pathrecommandation\RL_test1015\Tlab_SumoRL\network\test_14\net.net.xml"/>
    </input>

    <output>
        <output-file value="C:\Users\12611\Desktop\RL_pathrecommandation\RL_test1015\Tlab_SumoRL\network\test_14\net.net.xml"/>
    </output>

    <processing>
        <geometry.min-radius.fix.railways value="false"/>
        <geometry.max-grade.fix value="false"/>
        <offset.disable-normalization value="true"/>
        <lefthand value="false"/>
    </processing>

    <junctions>
        <no-turnarounds value="true"/>
        <junctions.corner-detail value="0"/>
        <junctions.limit-turn-speed value="-1"/>
        <rectangular-lane-cut value="false"/>
    </junctions>

    <pedestrian>
        <walkingareas value="false"/>
    </pedestrian>

    <report>
        <aggregate-warnings value="5"/>
    </report>

</configuration>
-->

<net version="1.6" xmlns:xsi="http://www.w3.org/2001/XMLSchema-instance" xsi:noNamespaceSchemaLocation="http://sumo.dlr.de/xsd/net_file.xsd">

    <location netOffset="0.00,0.00" convBoundary="-153.57,-0.13,730.46,401.38" origBoundary="0.00,0.00,400.00,400.00" projParameter="!"/>

    <edge id=":0/0_0" function="internal">
        <lane id=":0/0_0_0" index="0" speed="13.90" length="12.90" shape="-4.80,3.20 -4.30,-0.30 -2.80,-2.80 -0.30,-4.30 3.20,-4.80"/>
    </edge>
    <edge id=":0/0_1" function="internal">
        <lane id=":0/0_1_0" index="0" speed="13.90" length="7.74" shape="-1.60,3.20 -1.30,1.10 -0.40,-0.40 1.10,-1.30 3.20,-1.60"/>
    </edge>
    <edge id=":0/0_2" function="internal">
        <lane id=":0/0_2_0" index="0" speed="13.90" length="2.66" shape="-1.60,3.20 -0.80,2.00 0.00,1.60 0.29,1.74"/>
    </edge>
    <edge id=":0/0_5" function="internal">
        <lane id=":0/0_5_0" index="0" speed="13.90" length="2.01" shape="0.29,1.74 0.80,2.00 1.60,3.20"/>
    </edge>
    <edge id=":0/0_3" function="internal">
        <lane id=":0/0_3_0" index="0" speed="13.90" length="2.58" shape="3.20,1.60 2.50,1.70 2.00,2.00 1.70,2.50 1.60,3.20"/>
    </edge>
    <edge id=":0/0_4" function="internal">
        <lane id=":0/0_4_0" index="0" speed="13.90" length="4.67" shape="3.20,1.60 2.00,0.80 1.60,0.00 2.00,-0.80 3.20,-1.60"/>
    </edge>
    <edge id=":0/1_0" function="internal">
        <lane id=":0/1_0_0" index="0" speed="13.90" length="9.05" shape="7.20,201.60 4.74,201.95 2.98,203.00 1.91,204.74 1.54,207.19"/>
    </edge>
    <edge id=":0/1_1" function="internal">
        <lane id=":0/1_1_0" index="0" speed="13.90" length="19.63" shape="7.20,201.60 3.35,200.65 0.60,197.80 -1.05,193.05 -1.60,186.40"/>
    </edge>
    <edge id=":0/1_2" function="internal">
        <lane id=":0/1_2_0" index="0" speed="13.90" length="2.34" shape="7.20,201.60 6.00,200.80 5.60,200.00"/>
    </edge>
    <edge id=":0/1_11" function="internal">
        <lane id=":0/1_11_0" index="0" speed="13.90" length="2.34" shape="5.60,200.00 6.00,199.20 7.20,198.40"/>
    </edge>
    <edge id=":0/1_3" function="internal">
        <lane id=":0/1_3_0" index="0" speed="13.90" length="9.03" shape="1.60,186.40 1.95,188.85 3.00,190.60 4.75,191.65 7.20,192.00"/>
    </edge>
    <edge id=":0/1_4" function="internal">
        <lane id=":0/1_4_0" index="0" speed="13.90" length="20.79" shape="1.60,186.40 1.54,207.19"/>
    </edge>
    <edge id=":0/1_5" function="internal">
        <lane id=":0/1_5_0" index="0" speed="13.90" length="2.34" shape="1.60,186.40 0.80,187.60 0.00,188.00"/>
    </edge>
    <edge id=":0/1_12" function="internal">
        <lane id=":0/1_12_0" index="0" speed="13.90" length="2.34" shape="0.00,188.00 -0.80,187.60 -1.60,186.40"/>
    </edge>
    <edge id=":0/1_6" function="internal">
        <lane id=":0/1_6_0" index="0" speed="13.90" length="20.75" shape="-4.86,207.14 -4.80,186.40"/>
        <lane id=":0/1_6_1" index="1" speed="13.90" length="20.75" shape="-1.66,207.16 -1.60,186.40"/>
    </edge>
    <edge id=":0/1_8" function="internal">
        <lane id=":0/1_8_0" index="0" speed="13.90" length="7.79" shape="-1.66,207.16 -1.07,201.93 -0.04,199.62"/>
    </edge>
    <edge id=":0/1_9" function="internal">
        <lane id=":0/1_9_0" index="0" speed="13.90" length="5.87" shape="-1.66,207.16 -1.08,203.33 -0.04,201.63"/>
    </edge>
    <edge id=":0/1_10" function="internal">
        <lane id=":0/1_10_0" index="0" speed="13.90" length="2.34" shape="-1.66,207.16 -0.85,205.97 -0.04,205.57"/>
    </edge>
    <edge id=":0/1_13" function="internal">
        <lane id=":0/1_13_0" index="0" speed="13.90" length="9.04" shape="-0.04,199.62 0.60,198.19 3.36,195.95 7.20,195.20"/>
    </edge>
    <edge id=":0/1_14" function="internal">
        <lane id=":0/1_14_0" index="0" speed="13.90" length="8.32" shape="-0.04,201.63 0.59,200.59 3.35,198.95 7.20,198.40"/>
    </edge>
    <edge id=":0/1_15" function="internal">
        <lane id=":0/1_15_0" index="0" speed="13.90" length="2.34" shape="-0.04,205.57 0.75,205.98 1.54,207.19"/>
    </edge>
    <edge id=":0/2_0" function="internal">
        <lane id=":0/2_0_0" index="0" speed="13.90" length="16.89" shape="5.63,401.37 1.76,400.61 -0.98,398.35 -2.61,394.59 -3.13,389.33"/>
    </edge>
    <edge id=":0/2_1" function="internal">
        <lane id=":0/2_1_0" index="0" speed="13.90" length="2.34" shape="5.63,401.37 4.43,400.57 4.03,399.77"/>
    </edge>
    <edge id=":0/2_7" function="internal">
        <lane id=":0/2_7_0" index="0" speed="13.90" length="2.34" shape="4.03,399.77 4.43,398.97 5.64,398.17"/>
    </edge>
    <edge id=":0/2_2" function="internal">
        <lane id=":0/2_2_0" index="0" speed="13.90" length="9.03" shape="0.07,389.35 0.40,391.81 1.44,393.56 3.19,394.62 5.64,394.97"/>
    </edge>
    <edge id=":0/2_3" function="internal">
        <lane id=":0/2_3_0" index="0" speed="13.90" length="2.15" shape="0.07,389.35 -0.74,390.54 -1.37,390.86"/>
    </edge>
    <edge id=":0/2_8" function="internal">
        <lane id=":0/2_8_0" index="0" speed="13.90" length="2.52" shape="-1.37,390.86 -1.54,390.94 -2.34,390.53 -3.13,389.33"/>
    </edge>
    <edge id=":0/2_4" function="internal">
        <lane id=":0/2_4_0" index="0" speed="13.90" length="9.78" shape="-11.96,395.82 -9.51,395.40 -7.76,394.18 -6.70,392.14 -6.33,389.30"/>
    </edge>
    <edge id=":0/2_5" function="internal">
        <lane id=":0/2_5_0" index="0" speed="13.90" length="17.61" shape="-11.96,395.82 5.64,394.97"/>
        <lane id=":0/2_5_1" index="1" speed="13.90" length="17.61" shape="-11.94,399.02 5.64,398.17"/>
    </edge>
    <edge id=":1/0_0" function="internal">
        <lane id=":1/0_0_0" index="0" speed="13.90" length="9.03" shape="195.20,7.20 194.85,4.75 193.80,3.00 192.05,1.95 189.60,1.60"/>
    </edge>
    <edge id=":1/0_1" function="internal">
        <lane id=":1/0_1_0" index="0" speed="13.90" length="3.71" shape="198.40,7.20 198.93,3.52"/>
    </edge>
    <edge id=":1/0_2" function="internal">
        <lane id=":1/0_2_0" index="0" speed="13.90" length="1.99" shape="198.40,7.20 199.20,6.00 199.69,5.76"/>
    </edge>
    <edge id=":1/0_10" function="internal">
        <lane id=":1/0_10_0" index="0" speed="13.90" length="10.48" shape="198.93,3.52 198.95,3.35 200.60,0.60 203.35,-1.05 207.20,-1.60"/>
    </edge>
    <edge id=":1/0_11" function="internal">
        <lane id=":1/0_11_0" index="0" speed="13.90" length="2.68" shape="199.69,5.76 200.00,5.60 200.80,6.00 201.60,7.20"/>
    </edge>
    <edge id=":1/0_3" function="internal">
        <lane id=":1/0_3_0" index="0" speed="13.90" length="9.03" shape="207.20,1.60 204.75,1.95 203.00,3.00 201.95,4.75 201.60,7.20"/>
    </edge>
    <edge id=":1/0_4" function="internal">
        <lane id=":1/0_4_0" index="0" speed="13.90" length="17.60" shape="207.20,1.60 189.60,1.60"/>
    </edge>
    <edge id=":1/0_5" function="internal">
        <lane id=":1/0_5_0" index="0" speed="13.90" length="2.34" shape="207.20,1.60 206.00,0.80 205.60,0.00"/>
    </edge>
    <edge id=":1/0_12" function="internal">
        <lane id=":1/0_12_0" index="0" speed="13.90" length="2.34" shape="205.60,0.00 206.00,-0.80 207.20,-1.60"/>
    </edge>
    <edge id=":1/0_6" function="internal">
        <lane id=":1/0_6_0" index="0" speed="13.90" length="17.60" shape="189.60,-4.80 207.20,-4.80"/>
        <lane id=":1/0_6_1" index="1" speed="13.90" length="17.60" shape="189.60,-1.60 207.20,-1.60"/>
    </edge>
    <edge id=":1/0_8" function="internal">
        <lane id=":1/0_8_0" index="0" speed="13.90" length="16.85" shape="189.60,-1.60 194.85,-1.05 198.60,0.60 200.85,3.35 201.60,7.20"/>
    </edge>
    <edge id=":1/0_9" function="internal">
        <lane id=":1/0_9_0" index="0" speed="13.90" length="2.56" shape="189.60,-1.60 190.80,-0.80 191.20,0.00 191.10,0.20"/>
    </edge>
    <edge id=":1/0_13" function="internal">
        <lane id=":1/0_13_0" index="0" speed="13.90" length="2.12" shape="191.10,0.20 190.80,0.80 189.60,1.60"/>
    </edge>
    <edge id=":1/1_0" function="internal">
        <lane id=":1/1_0_0" index="0" speed="13.90" length="9.03" shape="195.20,207.20 194.85,204.75 193.80,203.00 192.05,201.95 189.60,201.60"/>
    </edge>
    <edge id=":1/1_1" function="internal">
        <lane id=":1/1_1_0" index="0" speed="13.90" length="20.80" shape="195.20,207.20 195.20,186.40"/>
        <lane id=":1/1_1_1" index="1" speed="13.90" length="20.80" shape="198.40,207.20 198.40,186.40"/>
    </edge>
    <edge id=":1/1_3" function="internal">
        <lane id=":1/1_3_0" index="0" speed="13.90" length="5.93" shape="198.40,207.20 198.95,203.35 200.00,201.60"/>
    </edge>
    <edge id=":1/1_4" function="internal">
        <lane id=":1/1_4_0" index="0" speed="13.90" length="2.34" shape="198.40,207.20 199.20,206.00 200.00,205.60"/>
    </edge>
    <edge id=":1/1_19" function="internal">
        <lane id=":1/1_19_0" index="0" speed="13.90" length="8.26" shape="200.00,201.60 200.60,200.60 203.35,198.95 207.20,198.40"/>
    </edge>
    <edge id=":1/1_20" function="internal">
        <lane id=":1/1_20_0" index="0" speed="13.90" length="2.34" shape="200.00,205.60 200.80,206.00 201.60,207.20"/>
    </edge>
    <edge id=":1/1_5" function="internal">
        <lane id=":1/1_5_0" index="0" speed="13.90" length="9.03" shape="207.20,201.60 204.75,201.95 203.00,203.00 201.95,204.75 201.60,207.20"/>
    </edge>
    <edge id=":1/1_6" function="internal">
        <lane id=":1/1_6_0" index="0" speed="13.90" length="17.60" shape="207.20,201.60 189.60,201.60"/>
    </edge>
    <edge id=":1/1_7" function="internal">
        <lane id=":1/1_7_0" index="0" speed="13.90" length="4.87" shape="207.20,201.60 203.35,200.65 202.72,200.00"/>
    </edge>
    <edge id=":1/1_8" function="internal">
        <lane id=":1/1_8_0" index="0" speed="13.90" length="2.34" shape="207.20,201.60 206.00,200.80 205.60,200.00"/>
    </edge>
    <edge id=":1/1_21" function="internal">
        <lane id=":1/1_21_0" index="0" speed="13.90" length="14.76" shape="202.72,200.00 200.60,197.80 198.95,193.05 198.40,186.40"/>
    </edge>
    <edge id=":1/1_22" function="internal">
        <lane id=":1/1_22_0" index="0" speed="13.90" length="2.34" shape="205.60,200.00 206.00,199.20 207.20,198.40"/>
    </edge>
    <edge id=":1/1_9" function="internal">
        <lane id=":1/1_9_0" index="0" speed="13.90" length="9.03" shape="201.60,186.40 201.95,188.85 203.00,190.60 204.75,191.65 207.20,192.00"/>
    </edge>
    <edge id=":1/1_10" function="internal">
        <lane id=":1/1_10_0" index="0" speed="13.90" length="20.80" shape="201.60,186.40 201.60,207.20"/>
    </edge>
    <edge id=":1/1_11" function="internal">
        <lane id=":1/1_11_0" index="0" speed="13.90" length="8.68" shape="201.60,186.40 200.85,193.05 200.00,194.84"/>
    </edge>
    <edge id=":1/1_12" function="internal">
        <lane id=":1/1_12_0" index="0" speed="13.90" length="2.34" shape="201.60,186.40 200.80,187.60 200.00,188.00"/>
    </edge>
    <edge id=":1/1_23" function="internal">
        <lane id=":1/1_23_0" index="0" speed="13.90" length="13.32" shape="200.00,194.84 198.60,197.80 194.85,200.65 189.60,201.60"/>
    </edge>
    <edge id=":1/1_24" function="internal">
        <lane id=":1/1_24_0" index="0" speed="13.90" length="2.34" shape="200.00,188.00 199.20,187.60 198.40,186.40"/>
    </edge>
    <edge id=":1/1_13" function="internal">
        <lane id=":1/1_13_0" index="0" speed="13.90" length="9.03" shape="189.60,192.00 192.05,191.65 193.80,190.60 194.85,188.85 195.20,186.40"/>
    </edge>
    <edge id=":1/1_14" function="internal">
        <lane id=":1/1_14_0" index="0" speed="13.90" length="17.60" shape="189.60,192.00 207.20,192.00"/>
        <lane id=":1/1_14_1" index="1" speed="13.90" length="17.60" shape="189.60,195.20 207.20,195.20"/>
        <lane id=":1/1_14_2" index="2" speed="13.90" length="17.60" shape="189.60,198.40 207.20,198.40"/>
    </edge>
    <edge id=":1/1_17" function="internal">
        <lane id=":1/1_17_0" index="0" speed="13.90" length="7.89" shape="189.60,198.40 194.85,198.95 197.24,200.00"/>
    </edge>
    <edge id=":1/1_18" function="internal">
        <lane id=":1/1_18_0" index="0" speed="13.90" length="2.34" shape="189.60,198.40 190.80,199.20 191.20,200.00"/>
    </edge>
    <edge id=":1/1_25" function="internal">
        <lane id=":1/1_25_0" index="0" speed="13.90" length="8.97" shape="197.24,200.00 198.60,200.60 200.85,203.35 201.60,207.20"/>
    </edge>
    <edge id=":1/1_26" function="internal">
        <lane id=":1/1_26_0" index="0" speed="13.90" length="2.34" shape="191.20,200.00 190.80,200.80 189.60,201.60"/>
    </edge>
    <edge id=":1/2_0" function="internal">
        <lane id=":1/2_0_0" index="0" speed="13.90" length="17.61" shape="207.20,401.60 189.59,401.59"/>
    </edge>
    <edge id=":1/2_1" function="internal">
        <lane id=":1/2_1_0" index="0" speed="13.90" length="5.27" shape="207.20,401.60 203.35,400.85 202.31,400.00"/>
    </edge>
    <edge id=":1/2_2" function="internal">
        <lane id=":1/2_2_0" index="0" speed="13.90" length="2.34" shape="207.20,401.60 206.00,400.80 205.60,400.00"/>
    </edge>
    <edge id=":1/2_10" function="internal">
        <lane id=":1/2_10_0" index="0" speed="13.90" length="11.59" shape="202.31,400.00 200.60,398.60 198.95,394.85 198.40,389.59"/>
    </edge>
    <edge id=":1/2_11" function="internal">
        <lane id=":1/2_11_0" index="0" speed="13.90" length="2.34" shape="205.60,400.00 206.00,399.20 207.20,398.40"/>
    </edge>
    <edge id=":1/2_3" function="internal">
        <lane id=":1/2_3_0" index="0" speed="13.90" length="9.04" shape="201.60,389.59 201.95,392.05 203.00,393.80 204.75,394.85 207.20,395.20"/>
    </edge>
    <edge id=":1/2_4" function="internal">
        <lane id=":1/2_4_0" index="0" speed="13.90" length="19.36" shape="201.60,389.59 200.85,394.85 198.60,398.60 194.84,400.84 189.59,401.59"/>
    </edge>
    <edge id=":1/2_5" function="internal">
        <lane id=":1/2_5_0" index="0" speed="13.90" length="2.34" shape="201.60,389.59 200.80,390.79 200.00,391.19"/>
    </edge>
    <edge id=":1/2_12" function="internal">
        <lane id=":1/2_12_0" index="0" speed="13.90" length="2.34" shape="200.00,391.19 199.20,390.79 198.40,389.59"/>
    </edge>
    <edge id=":1/2_6" function="internal">
        <lane id=":1/2_6_0" index="0" speed="13.90" length="9.03" shape="189.60,395.19 192.05,394.84 193.80,393.79 194.85,392.04 195.20,389.59"/>
    </edge>
    <edge id=":1/2_7" function="internal">
        <lane id=":1/2_7_0" index="0" speed="13.90" length="17.60" shape="189.60,395.19 207.20,395.20"/>
        <lane id=":1/2_7_1" index="1" speed="13.90" length="17.60" shape="189.59,398.39 207.20,398.40"/>
    </edge>
    <edge id=":1/2_9" function="internal">
        <lane id=":1/2_9_0" index="0" speed="13.90" length="2.34" shape="189.59,398.39 190.79,399.19 191.19,399.99"/>
    </edge>
    <edge id=":1/2_13" function="internal">
        <lane id=":1/2_13_0" index="0" speed="13.90" length="2.34" shape="191.19,399.99 190.79,400.79 189.59,401.59"/>
    </edge>
    <edge id=":2/0_0" function="internal">
        <lane id=":2/0_0_0" index="0" speed="13.90" length="9.03" shape="395.20,7.20 394.85,4.75 393.80,3.00 392.05,1.95 389.60,1.60"/>
    </edge>
    <edge id=":2/0_1" function="internal">
        <lane id=":2/0_1_0" index="0" speed="13.90" length="3.72" shape="398.40,7.20 398.92,3.52"/>
    </edge>
    <edge id=":2/0_2" function="internal">
        <lane id=":2/0_2_0" index="0" speed="13.90" length="1.99" shape="398.40,7.20 399.20,6.00 399.69,5.76"/>
    </edge>
    <edge id=":2/0_9" function="internal">
        <lane id=":2/0_9_0" index="0" speed="13.90" length="10.61" shape="398.92,3.52 398.95,3.28 400.61,0.49 403.37,-1.17 407.24,-1.69"/>
    </edge>
    <edge id=":2/0_10" function="internal">
        <lane id=":2/0_10_0" index="0" speed="13.90" length="2.68" shape="399.69,5.76 400.00,5.60 400.80,6.00 401.60,7.20"/>
    </edge>
    <edge id=":2/0_3" function="internal">
        <lane id=":2/0_3_0" index="0" speed="13.90" length="9.14" shape="407.21,1.51 404.76,1.84 403.00,2.90 401.95,4.69 401.60,7.20"/>
    </edge>
    <edge id=":2/0_4" function="internal">
        <lane id=":2/0_4_0" index="0" speed="13.90" length="17.61" shape="407.21,1.51 389.60,1.60"/>
    </edge>
    <edge id=":2/0_5" function="internal">
        <lane id=":2/0_5_0" index="0" speed="13.90" length="17.66" shape="389.60,-4.80 407.27,-4.89"/>
        <lane id=":2/0_5_1" index="1" speed="13.90" length="17.66" shape="389.60,-1.60 407.24,-1.69"/>
    </edge>
    <edge id=":2/0_7" function="internal">
        <lane id=":2/0_7_0" index="0" speed="13.90" length="16.85" shape="389.60,-1.60 394.85,-1.05 398.60,0.60 400.85,3.35 401.60,7.20"/>
    </edge>
    <edge id=":2/0_8" function="internal">
        <lane id=":2/0_8_0" index="0" speed="13.90" length="2.56" shape="389.60,-1.60 390.80,-0.80 391.20,0.00 391.10,0.20"/>
    </edge>
    <edge id=":2/0_11" function="internal">
        <lane id=":2/0_11_0" index="0" speed="13.90" length="2.12" shape="391.10,0.20 390.80,0.80 389.60,1.60"/>
    </edge>
    <edge id=":2/1_0" function="internal">
        <lane id=":2/1_0_0" index="0" speed="13.90" length="10.08" shape="395.20,208.47 394.85,205.47 393.80,203.32 392.05,202.03 389.60,201.60"/>
    </edge>
    <edge id=":2/1_1" function="internal">
        <lane id=":2/1_1_0" index="0" speed="13.90" length="22.07" shape="395.20,208.47 395.20,186.40"/>
        <lane id=":2/1_1_1" index="1" speed="13.90" length="22.07" shape="398.40,208.47 398.40,186.40"/>
    </edge>
    <edge id=":2/1_3" function="internal">
        <lane id=":2/1_3_0" index="0" speed="13.90" length="5.89" shape="398.40,208.47 398.95,204.64 400.00,202.91"/>
    </edge>
    <edge id=":2/1_4" function="internal">
        <lane id=":2/1_4_0" index="0" speed="13.90" length="2.34" shape="398.40,208.47 399.20,207.27 400.00,206.87"/>
    </edge>
    <edge id=":2/1_19" function="internal">
        <lane id=":2/1_19_0" index="0" speed="13.90" length="8.36" shape="400.00,202.91 400.62,201.89 403.39,200.22 407.28,199.63"/>
    </edge>
    <edge id=":2/1_20" function="internal">
        <lane id=":2/1_20_0" index="0" speed="13.90" length="2.34" shape="400.00,206.87 400.80,207.27 401.60,208.47"/>
    </edge>
    <edge id=":2/1_5" function="internal">
        <lane id=":2/1_5_0" index="0" speed="13.90" length="9.13" shape="407.31,202.83 404.81,203.21 403.03,204.27 401.96,206.03 401.60,208.47"/>
    </edge>
    <edge id=":2/1_6" function="internal">
        <lane id=":2/1_6_0" index="0" speed="13.90" length="17.75" shape="407.31,202.83 389.60,201.60"/>
    </edge>
    <edge id=":2/1_7" function="internal">
        <lane id=":2/1_7_0" index="0" speed="13.90" length="5.28" shape="407.31,202.83 403.41,201.84 402.57,200.91"/>
    </edge>
    <edge id=":2/1_8" function="internal">
        <lane id=":2/1_8_0" index="0" speed="13.89" length="2.47" shape="407.31,202.83 406.10,202.05 405.69,201.25 405.75,201.13"/>
    </edge>
    <edge id=":2/1_21" function="internal">
        <lane id=":2/1_21_0" index="0" speed="13.90" length="15.54" shape="402.57,200.91 400.63,198.77 398.96,193.62 398.40,186.40"/>
    </edge>
    <edge id=":2/1_22" function="internal">
        <lane id=":2/1_22_0" index="0" speed="13.89" length="2.21" shape="405.75,201.13 406.09,200.45 407.28,199.63"/>
    </edge>
    <edge id=":2/1_9" function="internal">
        <lane id=":2/1_9_0" index="0" speed="13.90" length="10.08" shape="401.60,186.40 401.95,189.41 403.00,191.55 404.76,192.83 407.22,193.23"/>
    </edge>
    <edge id=":2/1_10" function="internal">
        <lane id=":2/1_10_0" index="0" speed="13.90" length="22.07" shape="401.60,186.40 401.60,208.47"/>
    </edge>
    <edge id=":2/1_11" function="internal">
        <lane id=":2/1_11_0" index="0" speed="13.90" length="8.68" shape="401.60,186.40 400.85,193.05 400.00,194.84"/>
    </edge>
    <edge id=":2/1_12" function="internal">
        <lane id=":2/1_12_0" index="0" speed="13.90" length="2.34" shape="401.60,186.40 400.80,187.60 400.00,188.00"/>
    </edge>
    <edge id=":2/1_23" function="internal">
        <lane id=":2/1_23_0" index="0" speed="13.90" length="13.32" shape="400.00,194.84 398.60,197.80 394.85,200.65 389.60,201.60"/>
    </edge>
    <edge id=":2/1_24" function="internal">
        <lane id=":2/1_24_0" index="0" speed="13.90" length="2.34" shape="400.00,188.00 399.20,187.60 398.40,186.40"/>
    </edge>
    <edge id=":2/1_13" function="internal">
        <lane id=":2/1_13_0" index="0" speed="13.90" length="9.03" shape="389.60,192.00 392.05,191.65 393.80,190.60 394.85,188.85 395.20,186.40"/>
    </edge>
    <edge id=":2/1_14" function="internal">
        <lane id=":2/1_14_0" index="0" speed="13.90" length="17.69" shape="389.60,192.00 407.22,193.23"/>
        <lane id=":2/1_14_1" index="1" speed="13.90" length="17.69" shape="389.60,195.20 407.25,196.43"/>
        <lane id=":2/1_14_2" index="2" speed="13.90" length="17.69" shape="389.60,198.40 407.28,199.63"/>
    </edge>
    <edge id=":2/1_17" function="internal">
        <lane id=":2/1_17_0" index="0" speed="13.90" length="8.72" shape="389.60,198.40 394.85,199.03 397.92,200.58"/>
    </edge>
    <edge id=":2/1_18" function="internal">
        <lane id=":2/1_18_0" index="0" speed="13.90" length="2.45" shape="389.60,198.40 390.80,199.20 391.20,200.00 391.15,200.10"/>
    </edge>
    <edge id=":2/1_25" function="internal">
        <lane id=":2/1_25_0" index="0" speed="13.90" length="9.10" shape="397.92,200.58 398.60,200.92 400.85,204.07 401.60,208.47"/>
    </edge>
    <edge id=":2/1_26" function="internal">
        <lane id=":2/1_26_0" index="0" speed="13.90" length="2.22" shape="391.15,200.10 390.80,200.80 389.60,201.60"/>
    </edge>
    <edge id=":2/2_0" function="internal">
        <lane id=":2/2_0_0" index="0" speed="13.90" length="17.63" shape="407.22,402.21 389.60,401.60"/>
    </edge>
    <edge id=":2/2_1" function="internal">
        <lane id=":2/2_1_0" index="0" speed="13.90" length="5.47" shape="407.22,402.21 403.36,401.43 402.20,400.44"/>
    </edge>
    <edge id=":2/2_2" function="internal">
        <lane id=":2/2_2_0" index="0" speed="13.89" length="2.34" shape="407.22,402.21 406.02,401.41 405.62,400.61"/>
    </edge>
    <edge id=":2/2_10" function="internal">
        <lane id=":2/2_10_0" index="0" speed="13.90" length="11.93" shape="402.20,400.44 400.61,399.07 398.95,395.13 398.40,389.60"/>
    </edge>
    <edge id=":2/2_11" function="internal">
        <lane id=":2/2_11_0" index="0" speed="13.89" length="2.34" shape="405.62,400.61 406.02,399.81 407.21,399.01"/>
    </edge>
    <edge id=":2/2_3" function="internal">
        <lane id=":2/2_3_0" index="0" speed="13.90" length="9.54" shape="401.60,389.60 401.95,392.32 403.00,394.27 404.75,395.43 407.20,395.81"/>
    </edge>
    <edge id=":2/2_4" function="internal">
        <lane id=":2/2_4_0" index="0" speed="13.90" length="19.35" shape="401.60,389.60 400.85,394.85 398.60,398.60 394.85,400.85 389.60,401.60"/>
    </edge>
    <edge id=":2/2_5" function="internal">
        <lane id=":2/2_5_0" index="0" speed="13.90" length="2.34" shape="401.60,389.60 400.80,390.80 400.00,391.20"/>
    </edge>
    <edge id=":2/2_12" function="internal">
        <lane id=":2/2_12_0" index="0" speed="13.90" length="2.34" shape="400.00,391.20 399.20,390.80 398.40,389.60"/>
    </edge>
    <edge id=":2/2_6" function="internal">
        <lane id=":2/2_6_0" index="0" speed="13.90" length="9.03" shape="389.60,395.20 392.05,394.85 393.80,393.80 394.85,392.05 395.20,389.60"/>
    </edge>
    <edge id=":2/2_7" function="internal">
        <lane id=":2/2_7_0" index="0" speed="13.90" length="17.62" shape="389.60,395.20 407.20,395.81"/>
        <lane id=":2/2_7_1" index="1" speed="13.90" length="17.62" shape="389.60,398.40 407.21,399.01"/>
    </edge>
    <edge id=":2/2_9" function="internal">
        <lane id=":2/2_9_0" index="0" speed="13.90" length="2.34" shape="389.60,398.40 390.80,399.20 391.20,400.00"/>
    </edge>
    <edge id=":2/2_13" function="internal">
        <lane id=":2/2_13_0" index="0" speed="13.90" length="2.34" shape="391.20,400.00 390.80,400.80 389.60,401.60"/>
    </edge>
    <edge id=":3/0_0" function="internal">
        <lane id=":3/0_0_0" index="0" speed="13.89" length="17.52" shape="606.89,-3.14 624.39,-3.03"/>
        <lane id=":3/0_0_1" index="1" speed="13.89" length="17.52" shape="606.86,0.06 624.40,0.17"/>
    </edge>
    <edge id=":3/0_2" function="internal">
        <lane id=":3/0_2_0" index="0" speed="13.89" length="16.81" shape="606.86,0.06 612.09,0.65 615.82,2.33 618.05,5.08 618.78,8.92"/>
    </edge>
    <edge id=":3/0_3" function="internal">
        <lane id=":3/0_3_0" index="0" speed="13.89" length="2.56" shape="606.86,0.06 608.05,0.87 608.45,1.67 608.35,1.87"/>
    </edge>
    <edge id=":3/0_8" function="internal">
        <lane id=":3/0_8_0" index="0" speed="13.89" length="2.12" shape="608.35,1.87 608.04,2.47 606.83,3.26"/>
    </edge>
    <edge id=":3/0_4" function="internal">
        <lane id=":3/0_4_0" index="0" speed="13.89" length="9.01" shape="612.38,8.89 612.05,6.44 611.01,4.69 609.27,3.63 606.83,3.26"/>
    </edge>
    <edge id=":3/0_5" function="internal">
        <lane id=":3/0_5_0" index="0" speed="13.89" length="6.00" shape="612.38,8.89 613.16,3.69 613.54,3.06"/>
    </edge>
    <edge id=":3/0_6" function="internal">
        <lane id=":3/0_6_0" index="0" speed="13.89" length="3.70" shape="615.58,8.90 616.13,5.25"/>
    </edge>
    <edge id=":3/0_7" function="internal">
        <lane id=":3/0_7_0" index="0" speed="13.89" length="1.99" shape="615.58,8.90 616.39,7.71 616.88,7.47"/>
    </edge>
    <edge id=":3/0_9" function="internal">
        <lane id=":3/0_9_0" index="0" speed="13.89" length="13.26" shape="613.54,3.06 615.42,-0.03 619.16,-2.27 624.39,-3.03"/>
    </edge>
    <edge id=":3/0_10" function="internal">
        <lane id=":3/0_10_0" index="0" speed="13.89" length="10.43" shape="616.13,5.25 616.15,5.09 617.81,2.37 620.56,0.73 624.40,0.17"/>
    </edge>
    <edge id=":3/0_11" function="internal">
        <lane id=":3/0_11_0" index="0" speed="13.89" length="2.69" shape="616.88,7.47 617.19,7.31 617.99,7.72 618.78,8.92"/>
    </edge>
    <edge id=":3/1_0" function="internal">
        <lane id=":3/1_0_0" index="0" speed="13.89" length="20.93" shape="617.86,185.69 618.22,206.62"/>
    </edge>
    <edge id=":3/1_1" function="internal">
        <lane id=":3/1_1_0" index="0" speed="13.89" length="8.26" shape="617.86,185.69 617.08,192.29 616.40,193.75"/>
    </edge>
    <edge id=":3/1_8" function="internal">
        <lane id=":3/1_8_0" index="0" speed="13.89" length="13.60" shape="616.40,193.75 614.84,197.03 611.13,199.89 605.95,200.89"/>
    </edge>
    <edge id=":3/1_2" function="internal">
        <lane id=":3/1_2_0" index="0" speed="13.89" length="9.03" shape="605.85,191.29 608.30,190.91 610.04,189.85 611.10,188.10 611.46,185.66"/>
    </edge>
    <edge id=":3/1_3" function="internal">
        <lane id=":3/1_3_0" index="0" speed="13.89" length="14.13" shape="605.89,194.49 609.71,193.90 612.44,192.24 614.09,189.50 614.66,185.67"/>
    </edge>
    <edge id=":3/1_4" function="internal">
        <lane id=":3/1_4_0" index="0" speed="13.89" length="17.32" shape="605.92,197.69 611.37,198.20 615.24,199.86 617.52,202.67 618.22,206.62"/>
    </edge>
    <edge id=":3/1_5" function="internal">
        <lane id=":3/1_5_0" index="0" speed="13.89" length="9.31" shape="611.82,206.48 611.50,204.01 610.41,202.25 608.56,201.21 605.95,200.89"/>
    </edge>
    <edge id=":3/1_6" function="internal">
        <lane id=":3/1_6_0" index="0" speed="13.89" length="20.85" shape="611.82,206.48 611.46,185.66"/>
        <lane id=":3/1_6_1" index="1" speed="13.89" length="20.85" shape="615.02,206.55 614.66,185.67"/>
    </edge>
    <edge id=":3/2_0" function="internal">
        <lane id=":3/2_0_0" index="0" speed="13.89" length="12.67" shape="614.09,393.81 613.52,397.23 612.01,399.67 609.54,401.14 606.11,401.64"/>
    </edge>
    <edge id=":3/2_1" function="internal">
        <lane id=":3/2_1_0" index="0" speed="13.89" length="2.56" shape="614.09,393.81 613.26,395.00 612.45,395.38 612.26,395.28"/>
    </edge>
    <edge id=":3/2_5" function="internal">
        <lane id=":3/2_5_0" index="0" speed="13.89" length="2.12" shape="612.26,395.28 611.66,394.96 610.89,393.74"/>
    </edge>
    <edge id=":3/2_2" function="internal">
        <lane id=":3/2_2_0" index="0" speed="13.89" length="2.53" shape="606.09,395.24 606.78,395.14 607.27,394.84 607.58,394.36 607.69,393.67"/>
    </edge>
    <edge id=":3/2_3" function="internal">
        <lane id=":3/2_3_0" index="0" speed="13.89" length="7.60" shape="606.10,398.44 608.16,398.14 609.64,397.26 610.55,395.79 610.89,393.74"/>
    </edge>
    <edge id=":3/2_4" function="internal">