<routes>
    <vType id="typenormal" accel="0.8" decel="4.5" sigma="0.5" length="5" minGap="2.5" maxSpeed="16.67" guiShape="passenger"/>
    <vType id="typebus" accel="0.8" decel="4.5" sigma="0.5" length="7" minGap="3" maxSpeed="13" guiShape="bus"/>
  <route id="normal1" edges="0/1to1/1 1/1to2/1 2/1to3/1 3/1to3/2"/>
    <route id="outright" edges="0/2to1/2 1/2to2/2 2/2to3/2 3/2to3/1" />
    <route id="middleright" edges="0/1to1/1 1/1to2/1 2/1to3/1 3/1to3/2" />
    <route id="middleright2" edges="1/0to1/1 1/1to2/1 2/1to2/0" />
    <route id="middleright3" edges="0/0to0/1 0/1to1/1 1/1to1/0 1/0to0/0" />
    <route id="circle" edges="1/2to2/2 2/2to2/1 2/1to2/0 2/0to1/0 1/0to1/1 1/1to1/2" />
<flow id="1" type="typenormal" route="normal1" begin="0" end="10800" period="0.5" departPos='90'/>
    <vehicle id="outright_0" type="typenormal" route="outright" depart="1"/>
    <vehicle id="middleright_1" type="typenormal" route="middleright" depart="3"/>
    <vehicle id="middleright3st_2" type="typebus" route="middleright3" depart="4" color="blue"/>
    <vehicle id="outright_3" type="typenormal" route="outright" depart="5"/>
    <vehicle id="middleright_4" type="typenormal" route="middleright" depart="5"/>
    <vehicle id="circle_5" type="typenormal" route="circle" depart="6" color="1,0,0"/>
    <vehicle id="middleright_6" type="typenormal" route="middleright" depart="7"/>
    <vehicle id="circle_7" type="typenormal" route="circle" depart="7" color="1,0,0"/>
    <vehicle id="outright_8" type="typenormal" route="outright" depart="8"/>
    <vehicle id="outright_9" type="typenormal" route="outright" depart="9"/>
    <vehicle id="circle_10" type="typenormal" route="circle" depart="9" color="1,0,0"/>
    <vehicle id="middleright_11" type="typenormal" route="middleright" depart="11"/>
    <vehicle id="middleright_12" type="typenormal" route="middleright" depart="12"/>
    <vehicle id="circle_13" type="typenormal" route="circle" depart="12" color="1,0,0"/>
    <vehicle id="circle_14" type="typenormal" route="circle" depart="14" color="1,0,0"/>
    <vehicle id="outright_15" type="typenormal" route="outright" depart="15"/>
    <vehicle id="middleright_16" type="typenormal" route="middleright" depart="15"/>
    <vehicle id="middleright_17" type="typenormal" route="middleright" depart="16"/>
    <vehicle id="middleright2st_18" type="typebus" route="middleright2" depart="16" color="blue"/>
    <vehicle id="outright_19" type="typenormal" route="outright" depart="21"/>
    <vehicle id="middleright2st_20" type="typebus" route="middleright2" depart="21" color="blue"/>
    <vehicle id="middleright3st_21" type="typebus" route="middleright3" depart="23" color="blue"/>
    <vehicle id="circle_22" type="typenormal" route="circle" depart="23" color="1,0,0"/>
    <vehicle id="middleright2st_23" type="typebus" route="middleright2" depart="27" color="blue"/>
    <vehicle id="circle_24" type="typenormal" route="circle" depart="28" color="1,0,0"/>
    <vehicle id="middleright3st_25" type="typebus" route="middleright3" depart="29" color="blue"/>
    <vehicle id="circle_26" type="typenormal" route="circle" depart="31" color="1,0,0"/>
    <vehicle id="middleright2st_27" type="typebus" route="middleright2" depart="33" color="blue"/>
    <vehicle id="outright_28" type="typenormal" route="outright" depart="34"/>
    <vehicle id="middleright3st_29" type="typebus" route="middleright3" depart="35" color="blue"/>
    <vehicle id="circle_30" type="typenormal" route="circle" depart="35" color="1,0,0"/>
    <vehicle id="middleright_31" type="typenormal" route="middleright" depart="37"/>
    <vehicle id="middleright_32" type="typenormal" route="middleright" depart="40"/>
    <vehicle id="circle_33" type="typenormal" route="circle" depart="41" color="1,0,0"/>
    <vehicle id="middleright_34" type="typenormal" route="middleright" depart="44"/>
    <vehicle id="middleright2st_35" type="typebus" route="middleright2" depart="44" color="blue"/>
    <vehicle id="middleright2st_36" type="typebus" route="middleright2" depart="45" color="blue"/>
    <vehicle id="middleright_37" type="typenormal" route="middleright" depart="46"/>
    <vehicle id="circle_38" type="typenormal" route="circle" depart="47" color="1,0,0"/>
    <vehicle id="middleright_39" type="typenormal" route="middleright" depart="48"/>
    <vehicle id="circle_40" type="typenormal" route="circle" depart="51" color="1,0,0"/>
    <vehicle id="middleright3st_41" type="typebus" route="middleright3" depart="52" color="blue"/>
    <vehicle id="outright_42" type="typenormal" route="outright" depart="53"/>
    <vehicle id="middleright2st_43" type="typebus" route="middleright2" depart="58" color="blue"/>
    <vehicle id="middleright_44" type="typenormal" route="middleright" depart="59"/>
    <vehicle id="circle_45" type="typenormal" route="circle" depart="59" color="1,0,0"/>
    <vehicle id="middleright2st_46" type="typebus" route="middleright2" depart="60" color="blue"/>
    <vehicle id="outright_47" type="typenormal" route="outright" depart="63"/>
    <vehicle id="middleright2st_48" type="typebus" route="middleright2" depart="63" color="blue"/>
    <vehicle id="middleright_49" type="typenormal" route="middleright" depart="67"/>
    <vehicle id="circle_50" type="typenormal" route="circle" depart="67" color="1,0,0"/>
    <vehicle id="outright_51" type="typenormal" route="outright" depart="68"/>
    <vehicle id="outright_52" type="typenormal" route="outright" depart="70"/>
    <vehicle id="middleright_53" type="typenormal" route="middleright" depart="70"/>
    <vehicle id="middleright2st_54" type="typebus" route="middleright2" depart="70" color="blue"/>
    <vehicle id="middleright_55" type="typenormal" route="middleright" depart="71"/>
    <vehicle id="middleright3st_56" type="typebus" route="middleright3" depart="71" color="blue"/>
    <vehicle id="circle_57" type="typenormal" route="circle" depart="75" color="1,0,0"/>
    <vehicle id="middleright_58" type="typenormal" route="middleright" depart="77"/>
    <vehicle id="middleright3st_59" type="typebus" route="middleright3" depart="77" color="blue"/>
    <vehicle id="middleright_60" type="typenormal" route="middleright" depart="80"/>
    <vehicle id="middleright3st_61" type="typebus" route="middleright3" depart="80" color="blue"/>
    <vehicle id="middleright_62" type="typenormal" route="middleright" depart="81"/>
    <vehicle id="outright_63" type="typenormal" route="outright" depart="82"/>
    <vehicle id="middleright_64" type="typenormal" route="middleright" depart="82"/>
    <vehicle id="middleright3st_65" type="typebus" route="middleright3" depart="89" color="blue"/>
    <vehicle id="circle_66" type="typenormal" route="circle" depart="90" color="1,0,0"/>
    <vehicle id="circle_67" type="typenormal" route="circle" depart="93" color="1,0,0"/>
    <vehicle id="middleright3st_68" type="typebus" route="middleright3" depart="95" color="blue"/>
    <vehicle id="outright_69" type="typenormal" route="outright" depart="96"/>
    <vehicle id="middleright_70" type="typenormal" route="middleright" depart="96"/>
    <vehicle id="middleright_71" type="typenormal" route="middleright" depart="98"/>
    <vehicle id="middleright_72" type="typenormal" route="middleright" depart="101"/>
    <vehicle id="middleright_73" type="typenormal" route="middleright" depart="103"/>
    <vehicle id="middleright3st_74" type="typebus" route="middleright3" depart="106" color="blue"/>
    <vehicle id="middleright_75" type="typenormal" route="middleright" depart="108"/>
    <vehicle id="circle_76" type="typenormal" route="circle" depart="108" color="1,0,0"/>
    <vehicle id="outright_77" type="typenormal" route="outright" depart="111"/>
    <vehicle id="outright_78" type="typenormal" route="outright" depart="115"/>
    <vehicle id="middleright_79" type="typenormal" route="middleright" depart="115"/>
    <vehicle id="middleright2st_80" type="typebus" route="middleright2" depart="115" color="blue"/>
    <vehicle id="middleright_81" type="typenormal" route="middleright" depart="118"/>
    <vehicle id="middleright2st_82" type="typebus" route="middleright2" depart="118" color="blue"/>
    <vehicle id="circle_83" type="typenormal" route="circle" depart="120" color="1,0,0"/>
    <vehicle id="middleright_84" type="typenormal" route="middleright" depart="124"/>
    <vehicle id="middleright_85" type="typenormal" route="middleright" depart="125"/>
    <vehicle id="middleright_86" type="typenormal" route="middleright" depart="131"/>
    <vehicle id="outright_87" type="typenormal" route="outright" depart="132"/>
    <vehicle id="middleright_88" type="typenormal" route="middleright" depart="134"/>
    <vehicle id="middleright_89" type="typenormal" route="middleright" depart="136"/>
    <vehicle id="middleright2st_90" type="typebus" route="middleright2" depart="143" color="blue"/>
    <vehicle id="middleright_91" type="typenormal" route="middleright" depart="144"/>
    <vehicle id="outright_92" type="typenormal" route="outright" depart="145"/>
    <vehicle id="circle_93" type="typenormal" route="circle" depart="146" color="1,0,0"/>
    <vehicle id="middleright_94" type="typenormal" route="middleright" depart="147"/>
    <vehicle id="circle_95" type="typenormal" route="circle" depart="148" color="1,0,0"/>
    <vehicle id="middleright_96" type="typenormal" route="middleright" depart="149"/>
    <vehicle id="middleright2st_97" type="typebus" route="middleright2" depart="152" color="blue"/>
    <vehicle id="middleright_98" type="typenormal" route="middleright" depart="153"/>
    <vehicle id="circle_99" type="typenormal" route="circle" depart="155" color="1,0,0"/>
    <vehicle id="outright_100" type="typenormal" route="outright" depart="156"/>
    <vehicle id="middleright2st_101" type="typebus" route="middleright2" depart="156" color="blue"/>
    <vehicle id="circle_102" type="typenormal" route="circle" depart="156" color="1,0,0"/>
    <vehicle id="middleright_103" type="typenormal" route="middleright" depart="157"/>
    <vehicle id="middleright2st_104" type="typebus" route="middleright2" depart="158" color="blue"/>
    <vehicle id="outright_105" type="typenormal" route="outright" depart="162"/>
    <vehicle id="outright_106" type="typenormal" route="outright" depart="164"/>
    <vehicle id="middleright3st_107" type="typebus" route="middleright3" depart="164" color="blue"/>
    <vehicle id="circle_108" type="typenormal" route="circle" depart="164" color="1,0,0"/>
    <vehicle id="middleright2st_109" type="typebus" route="middleright2" depart="165" color="blue"/>
    <vehicle id="middleright_110" type="typenormal" route="middleright" depart="166"/>
    <vehicle id="outright_111" type="typenormal" route="outright" depart="167"/>
    <vehicle id="middleright_112" type="typenormal" route="middleright" depart="171"/>
    <vehicle id="middleright3st_113" type="typebus" route="middleright3" depart="174" color="blue"/>
    <vehicle id="middleright3st_114" type="typebus" route="middleright3" depart="175" color="blue"/>
    <vehicle id="outright_115" type="typenormal" route="outright" depart="176"/>
    <vehicle id="middleright_116" type="typenormal" route="middleright" depart="177"/>
    <vehicle id="middleright_117" type="typenormal" route="middleright" depart="181"/>
    <vehicle id="middleright2st_118" type="typebus" route="middleright2" depart="181" color="blue"/>
    <vehicle id="middleright_119" type="typenormal" route="middleright" depart="182"/>
    <vehicle id="middleright_120" type="typenormal" route="middleright" depart="185"/>
    <vehicle id="middleright2st_121" type="typebus" route="middleright2" depart="187" color="blue"/>
    <vehicle id="middleright2st_122" type="typebus" route="middleright2" depart="188" color="blue"/>
    <vehicle id="outright_123" type="typenormal" route="outright" depart="191"/>
    <vehicle id="middleright_124" type="typenormal" route="middleright" depart="191"/>
    <vehicle id="circle_125" type="typenormal" route="circle" depart="195" color="1,0,0"/>
    <vehicle id="middleright2st_126" type="typebus" route="middleright2" depart="198" color="blue"/>
    <vehicle id="middleright_127" type="typenormal" route="middleright" depart="199"/>
    <vehicle id="middleright2st_128" type="typebus" route="middleright2" depart="201" color="blue"/>
    <vehicle id="outright_129" type="typenormal" route="outright" depart="203"/>
    <vehicle id="middleright_130" type="typenormal" route="middleright" depart="203"/>
    <vehicle id="middleright_131" type="typenormal" route="middleright" depart="204"/>
    <vehicle id="middleright_132" type="typenormal" route="middleright" depart="206"/>
    <vehicle id="outright_133" type="typenormal" route="outright" depart="207"/>
    <vehicle id="middleright2st_134" type="typebus" route="middleright2" depart="207" color="blue"/>
    <vehicle id="middleright2st_135" type="typebus" route="middleright2" depart="209" color="blue"/>
    <vehicle id="circle_136" type="typenormal" route="circle" depart="209" color="1,0,0"/>
    <vehicle id="middleright_137" type="typenormal" route="middleright" depart="210"/>
    <vehicle id="circle_138" type="typenormal" route="circle" depart="210" color="1,0,0"/>
    <vehicle id="middleright_139" type="typenormal" route="middleright" depart="211"/>
    <vehicle id="circle_140" type="typenormal" route="circle" depart="215" color="1,0,0"/>
    <vehicle id="middleright_141" type="typenormal" route="middleright" depart="217"/>
    <vehicle id="middleright_142" type="typenormal" route="middleright" depart="218"/>
    <vehicle id="middleright_143" type="typenormal" route="middleright" depart="219"/>
    <vehicle id="middleright3st_144" type="typebus" route="middleright3" depart="219" color="blue"/>
    <vehicle id="outright_145" type="typenormal" route="outright" depart="221"/>
    <vehicle id="circle_146" type="typenormal" route="circle" depart="222" color="1,0,0"/>
    <vehicle id="middleright3st_147" type="typebus" route="middleright3" depart="223" color="blue"/>
    <vehicle id="circle_148" type="typenormal" route="circle" depart="224" color="1,0,0"/>
    <vehicle id="middleright_149" type="typenormal" route="middleright" depart="225"/>
    <vehicle id="middleright_150" type="typenormal" route="middleright" depart="226"/>
    <vehicle id="circle_151" type="typenormal" route="circle" depart="226" color="1,0,0"/>
    <vehicle id="outright_152" type="typenormal" route="outright" depart="227"/>
    <vehicle id="middleright_153" type="typenormal" route="middleright" depart="227"/>
    <vehicle id="middleright2st_154" type="typebus" route="middleright2" depart="227" color="blue"/>
    <vehicle id="circle_155" type="typenormal" route="circle" depart="231" color="1,0,0"/>
    <vehicle id="outright_156" type="typenormal" route="outright" depart="233"/>
    <vehicle id="outright_157" type="typenormal" route="outright" depart="235"/>
    <vehicle id="outright_158" type="typenormal" route="outright" depart="238"/>
    <vehicle id="middleright_159" type="typenormal" route="middleright" depart="238"/>
    <vehicle id="outright_160" type="typenormal" route="outright" depart="239"/>
    <vehicle id="middleright_161" type="typenormal" route="middleright" depart="239"/>
    <vehicle id="middleright2st_162" type="typebus" route="middleright2" depart="239" color="blue"/>
    <vehicle id="middleright_163" type="typenormal" route="middleright" depart="244"/>
    <vehicle id="circle_164" type="typenormal" route="circle" depart="244" color="1,0,0"/>
    <vehicle id="middleright_165" type="typenormal" route="middleright" depart="245"/>
    <vehicle id="middleright3st_166" type="typebus" route="middleright3" depart="245" color="blue"/>
    <vehicle id="circle_167" type="typenormal" route="circle" depart="245" color="1,0,0"/>
    <vehicle id="circle_168" type="typenormal" route="circle" depart="246" color="1,0,0"/>
    <vehicle id="outright_169" type="typenormal" route="outright" depart="247"/>
    <vehicle id="outright_170" type="typenormal" route="outright" depart="248"/>
    <vehicle id="middleright3st_171" type="typebus" route="middleright3" depart="249" color="blue"/>
    <vehicle id="outright_172" type="typenormal" route="outright" depart="250"/>
    <vehicle id="middleright_173" type="typenormal" route="middleright" depart="251"/>
    <vehicle id="middleright_174" type="typenormal" route="middleright" depart="256"/>
    <vehicle id="outright_175" type="typenormal" route="outright" depart="258"/>
    <vehicle id="circle_176" type="typenormal" route="circle" depart="258" color="1,0,0"/>
    <vehicle id="middleright_177" type="typenormal" route="middleright" depart="260"/>
    <vehicle id="middleright2st_178" type="typebus" route="middleright2" depart="262" color="blue"/>
    <vehicle id="middleright_179" type="typenormal" route="middleright" depart="264"/>
    <vehicle id="middleright_180" type="typenormal" route="middleright" depart="266"/>
    <vehicle id="circle_181" type="typenormal" route="circle" depart="266" color="1,0,0"/>
    <vehicle id="middleright3st_182" type="typebus" route="middleright3" depart="267" color="blue"/>
    <vehicle id="circle_183" type="typenormal" route="circle" depart="269" color="1,0,0"/>
    <vehicle id="middleright_184" type="typenormal" route="middleright" depart="271"/>
    <vehicle id="middleright2st_185" type="typebus" route="middleright2" depart="272" color="blue"/>
    <vehicle id="outright_186" type="typenormal" route="outright" depart="273"/>
    <vehicle id="middleright2st_187" type="typebus" route="middleright2" depart="273" color="blue"/>
    <vehicle id="middleright_188" type="typenormal" route="middleright" depart="274"/>
    <vehicle id="middleright2st_189" type="typebus" route="middleright2" depart="276" color="blue"/>
    <vehicle id="circle_190" type="typenormal" route="circle" depart="278" color="1,0,0"/>
    <vehicle id="middleright_191" type="typenormal" route="middleright" depart="279"/>
    <vehicle id="outright_192" type="typenormal" route="outright" depart="281"/>
    <vehicle id="middleright_193" type="typenormal" route="middleright" depart="282"/>
    <vehicle id="outright_194" type="typenormal" route="outright" depart="283"/>
    <vehicle id="middleright_195" type="typenormal" route="middleright" depart="285"/>
    <vehicle id="middleright3st_196" type="typebus" route="middleright3" depart="286" color="blue"/>
    <vehicle id="circle_197" type="typenormal" route="circle" depart="286" color="1,0,0"/>
    <vehicle id="middleright_198" type="typenormal" route="middleright" depart="288"/>
    <vehicle id="middleright2st_199" type="typebus" route="middleright2" depart="288" color="blue"/>
    <vehicle id="middleright_200" type="typenormal" route="middleright" depart="289"/>
    <vehicle id="circle_201" type="typenormal" route="circle" depart="290" color="1,0,0"/>
    <vehicle id="middleright_202" type="typenormal" route="middleright" depart="295"/>
    <vehicle id="middleright_203" type="typenormal" route="middleright" depart="296"/>
    <vehicle id="outright_204" type="typenormal" route="outright" depart="297"/>
    <vehicle id="middleright2st_205" type="typebus" route="middleright2" depart="298" color="blue"/>
    <vehicle id="middleright_206" type="typenormal" route="middleright" depart="300"/>
    <vehicle id="middleright_207" type="typenormal" route="middleright" depart="301"/>
    <vehicle id="middleright3st_208" type="typebus" route="middleright3" depart="305" color="blue"/>
    <vehicle id="middleright2st_209" type="typebus" route="middleright2" depart="306" color="blue"/>
    <vehicle id="outright_210" type="typenormal" route="outright" depart="309"/>
    <vehicle id="middleright_211" type="typenormal" route="middleright" depart="309"/>
    <vehicle id="middleright2st_212" type="typebus" route="middleright2" depart="310" color="blue"/>
    <vehicle id="middleright_213" type="typenormal" route="middleright" depart="312"/>
    <vehicle id="outright_214" type="typenormal" route="outright" depart="313"/>
    <vehicle id="middleright_215" type="typenormal" route="middleright" depart="315"/>
    <vehicle id="middleright3st_216" type="typebus" route="middleright3" depart="315" color="blue"/>
    <vehicle id="middleright2st_217" type="typebus" route="middleright2" depart="316" color="blue"/>
    <vehicle id="outright_218" type="typenormal" route="outright" depart="317"/>
    <vehicle id="circle_219" type="typenormal" route="circle" depart="319" color="1,0,0"/>
    <vehicle id="circle_220" type="typenormal" route="circle" depart="321" color="1,0,0"/>
    <vehicle id="middleright3st_221" type="typebus" route="middleright3" depart="322" color="blue"/>
    <vehicle id="middleright3st_222" type="typebus" route="middleright3" depart="323" color="blue"/>
    <vehicle id="circle_223" type="typenormal" route="circle" depart="323" color="1,0,0"/>
    <vehicle id="outright_224" type="typenormal" route="outright" depart="324"/>
    <vehicle id="middleright_225" type="typenormal" route="middleright" depart="324"/>
    <vehicle id="middleright3st_226" type="typebus" route="middleright3" depart="324" color="blue"/>
    <vehicle id="outright_227" type="typenormal" route="outright" depart="325"/>
    <vehicle id="outright_228" type="typenormal" route="outright" depart="326"/>
    <vehicle id="outright_229" type="typenormal" route="outright" depart="328"/>
    <vehicle id="middleright_230" type="typenormal" route="middleright" depart="328"/>
    <vehicle id="outright_231" type="typenormal" route="outright" depart="329"/>
    <vehicle id="middleright3st_232" type="typebus" route="middleright3" depart="332" color="blue"/>
    <vehicle id="middleright2st_233" type="typebus" route="middleright2" depart="333" color="blue"/>
    <vehicle id="circle_234" type="typenormal" route="circle" depart="334" color="1,0,0"/>
    <vehicle id="middleright2st_235" type="typebus" route="middleright2" depart="335" color="blue"/>
    <vehicle id="middleright3st_236" type="typebus" route="middleright3" depart="335" color="blue"/>
    <vehicle id="outright_237" type="typenormal" route="outright" depart="338"/>
    <vehicle id="middleright_238" type="typenormal" route="middleright" depart="338"/>
    <vehicle id="middleright3st_239" type="typebus" route="middleright3" depart="340" color="blue"/>
    <vehicle id="middleright_240" type="typenormal" route="middleright" depart="341"/>
    <vehicle id="outright_241" type="typenormal" route="outright" depart="342"/>
    <vehicle id="middleright3st_242" type="typebus" route="middleright3" depart="342" color="blue"/>
    <vehicle id="middleright_243" type="typenormal" route="middleright" depart="343"/>
    <vehicle id="middleright2st_244" type="typebus" route="middleright2" depart="343" color="blue"/>
    <vehicle id="outright_245" type="typenormal" route="outright" depart="344"/>
    <vehicle id="middleright_246" type="typenormal" route="middleright" depart="348"/>
    <vehicle id="middleright2st_247" type="typebus" route="middleright2" depart="348" color="blue"/>
    <vehicle id="outright_248" type="typenormal" route="outright" depart="353"/>
    <vehicle id="middleright3st_249" type="typebus" route="middleright3" depart="354" color="blue"/>
    <vehicle id="circle_250" type="typenormal" route="circle" depart="354" color="1,0,0"/>
    <vehicle id="outright_251" type="typenormal" route="outright" depart="356"/>
    <vehicle id="circle_252" type="typenormal" route="circle" depart="356" color="1,0,0"/>
    <vehicle id="middleright_253" type="typenormal" route="middleright" depart="361"/>
    <vehicle id="circle_254" type="typenormal" route="circle" depart="361" color="1,0,0"/>
    <vehicle id="middleright_255" type="typenormal" route="middleright" depart="362"/>
    <vehicle id="middleright2st_256" type="typebus" route="middleright2" depart="363" color="blue"/>
    <vehicle id="outright_257" type="typenormal" route="outright" depart="364"/>
    <vehicle id="outright_258" type="typenormal" route="outright" depart="366"/>
    <vehicle id="middleright_259" type="typenormal" route="middleright" depart="366"/>
    <vehicle id="middleright_260" type="typenormal" route="middleright" depart="367"/>
    <vehicle id="circle_261" type="typenormal" route="circle" depart="368" color="1,0,0"/>
    <vehicle id="middleright2st_262" type="typebus" route="middleright2" depart="370" color="blue"/>
    <vehicle id="middleright3st_263" type="typebus" route="middleright3" depart="370" color="blue"/>
    <vehicle id="middleright_264" type="typenormal" route="middleright" depart="371"/>
    <vehicle id="outright_265" type="typenormal" route="outright" depart="372"/>
    <vehicle id="middleright_266" type="typenormal" route="middleright" depart="374"/>
    <vehicle id="middleright2st_267" type="typebus" route="middleright2" depart="375" color="blue"/>
    <vehicle id="middleright3st_268" type="typebus" route="middleright3" depart="375" color="blue"/>
    <vehicle id="middleright3st_269" type="typebus" route="middleright3" depart="376" color="blue"/>
    <vehicle id="middleright_270" type="typenormal" route="middleright" depart="378"/>
    <vehicle id="middleright_271" type="typenormal" route="middleright" depart="379"/>
    <vehicle id="middleright3st_272" type="typebus" route="middleright3" depart="380" color="blue"/>
    <vehicle id="middleright_273" type="typenormal" route="middleright" depart="381"/>
    <vehicle id="outright_274" type="typenormal" route="outright" depart="384"/>
    <vehicle id="outright_275" type="typenormal" route="outright" depart="385"/>
    <vehicle id="outright_276" type="typenormal" route="outright" depart="386"/>
    <vehicle id="middleright_277" type="typenormal" route="middleright" depart="386"/>
    <vehicle id="middleright_278" type="typenormal" route="middleright" depart="387"/>
    <vehicle id="middleright2st_279" type="typebus" route="middleright2" depart="387" color="blue"/>
    <vehicle id="outright_280" type="typenormal" route="outright" depart="388"/>
    <vehicle id="middleright_281" type="typenormal" route="middleright" depart="388"/>
    <vehicle id="middleright2st_282" type="typebus" route="middleright2" depart="389" color="blue"/>
    <vehicle id="outright_283" type="typenormal" route="outright" depart="391"/>
    <vehicle id="middleright2st_284" type="typebus" route="middleright2" depart="391" color="blue"/>
    <vehicle id="middleright_285" type="typenormal" route="middleright" depart="392"/>
    <vehicle id="middleright2st_286" type="typebus" route="middleright2" depart="393" color="blue"/>
    <vehicle id="outright_287" type="typenormal" route="outright" depart="394"/>
    <vehicle id="middleright3st_288" type="typebus" route="middleright3" depart="394" color="blue"/>
    <vehicle id="circle_289" type="typenormal" route="circle" depart="396" color="1,0,0"/>
    <vehicle id="middleright2st_290" type="typebus" route="middleright2" depart="400" color="blue"/>
    <vehicle id="middleright3st_291" type="typebus" route="middleright3" depart="403" color="blue"/>
    <vehicle id="outright_292" type="typenormal" route="outright" depart="406"/>
    <vehicle id="middleright3st_293" type="typebus" route="middleright3" depart="407" color="blue"/>
    <vehicle id="middleright_294" type="typenormal" route="middleright" depart="408"/>
    <vehicle id="circle_295" type="typenormal" route="circle" depart="408" color="1,0,0"/>
    <vehicle id="middleright3st_296" type="typebus" route="middleright3" depart="409" color="blue"/>
    <vehicle id="circle_297" type="typenormal" route="circle" depart="410" color="1,0,0"/>
    <vehicle id="outright_298" type="typenormal" route="outright" depart="413"/>
    <vehicle id="circle_299" type="typenormal" route="circle" depart="414" color="1,0,0"/>
    <vehicle id="circle_300" type="typenormal" route="circle" depart="417" color="1,0,0"/>
    <vehicle id="circle_301" type="typenormal" route="circle" depart="418" color="1,0,0"/>
    <vehicle id="middleright_302" type="typenormal" route="middleright" depart="421"/>
    <vehicle id="circle_303" type="typenormal" route="circle" depart="421" color="1,0,0"/>
    <vehicle id="middleright_304" type="typenormal" route="middleright" depart="424"/>
    <vehicle id="outright_305" type="typenormal" route="outright" depart="426"/>
    <vehicle id="circle_306" type="typenormal" route="circle" depart="429" color="1,0,0"/>
    <vehicle id="middleright_307" type="typenormal" route="middleright" depart="430"/>
    <vehicle id="middleright_308" type="typenormal" route="middleright" depart="432"/>
    <vehicle id="middleright2st_309" type="typebus" route="middleright2" depart="433" color="blue"/>
    <vehicle id="middleright_310" type="typenormal" route="middleright" depart="434"/>
    <vehicle id="circle_311" type="typenormal" route="circle" depart="434" color="1,0,0"/>
    <vehicle id="middleright_312" type="typenormal" route="middleright" depart="438"/>
    <vehicle id="middleright_313" type="typenormal" route="middleright" depart="439"/>
    <vehicle id="middleright2st_314" type="typebus" route="middleright2" depart="441" color="blue"/>
    <vehicle id="middleright_315" type="typenormal" route="middleright" depart="445"/>
    <vehicle id="middleright2st_316" type="typebus" route="middleright2" depart="447" color="blue"/>
    <vehicle id="outright_317" type="typenormal" route="outright" depart="448"/>
    <vehicle id="middleright2st_318" type="typebus" route="middleright2" depart="452" color="blue"/>
    <vehicle id="circle_319" type="typenormal" route="circle" depart="453" color="1,0,0"/>
    <vehicle id="middleright2st_320" type="typebus" route="middleright2" depart="455" color="blue"/>
    <vehicle id="circle_321" type="typenormal" route="circle" depart="455" color="1,0,0"/>
    <vehicle id="circle_322" type="typenormal" route="circle" depart="457" color="1,0,0"/>
    <vehicle id="middleright_323" type="typenormal" route="middleright" depart="458"/>