<routes>
        <vType vClass="passenger"  id="passenger4" accel="2" decel="1.5" sigma="0.5" length="4.5" color="255,255,255" guiShape="passenger" />
		<vType vClass="passenger"  id="passenger3" accel="3" decel="1.5" sigma="0.5" length="5" color="blue" guiShape="passenger"/>
		<vType vClass="passenger" id="passenger2" accel="2" decel="1.5" sigma="0.5" length="4.5" color="255,255,255" guiShape="passenger" />
		<vType vClass="passenger" carFollowModel="IDM" id="passenger" accel="2" decel="1.5" sigma="0.5" length="4.5" color="255,255,255" guiShape="passenger"/>

        <route id="normal1" edges="0/1to1/1 1/1to2/1"/>
		<route id="normal2" edges="0/1to1/1 1/1to1/0"/>
		<route id="normal3" edges="0/1to1/1 1/1to1/2"/>

    <vehicle id="outright_0" type="passenger4" departLane="random" lcCooperative="0.000001" route="normal1" depart="0"/>
    <vehicle id="middleright_1" type="passenger2" departLane="random" lcCooperative="0.000001" route="normal2" depart="0"/>
    <vehicle id="middleright2st_2" type="passenger3" departLane="random" lcCooperative="0.000001" route="normal3" depart="0" color="blue"/>
    <vehicle id="outright_3" type="passenger4" departLane="random" lcCooperative="0.000001" route="normal1" depart="1"/>
    <vehicle id="middleright_4" type="passenger2" departLane="random" lcCooperative="0.000001" route="normal2" depart="1"/>
    <vehicle id="middleright2st_5" type="passenger3" departLane="random" lcCooperative="0.000001" route="normal3" depart="1" color="blue"/>
    <vehicle id="outright_6" type="passenger4" departLane="random" lcCooperative="0.000001" route="normal1" depart="2"/>
    <vehicle id="middleright_7" type="passenger2" departLane="random" lcCooperative="0.000001" route="normal2" depart="2"/>
    <vehicle id="middleright2st_8" type="passenger3" departLane="random" lcCooperative="0.000001" route="normal3" depart="2" color="blue"/>
    <vehicle id="outright_9" type="passenger4" departLane="random" lcCooperative="0.000001" route="normal1" depart="3"/>
    <vehicle id="middleright_10" type="passenger2" departLane="random" lcCooperative="0.000001" route="normal2" depart="3"/>
    <vehicle id="middleright2st_11" type="passenger3" departLane="random" lcCooperative="0.000001" route="normal3" depart="3" color="blue"/>
    <vehicle id="outright_12" type="passenger4" departLane="random" lcCooperative="0.000001" route="normal1" depart="4"/>
    <vehicle id="middleright_13" type="passenger2" departLane="random" lcCooperative="0.000001" route="normal2" depart="4"/>
    <vehicle id="middleright2st_14" type="passenger3" departLane="random" lcCooperative="0.000001" route="normal3" depart="4" color="blue"/>
    <vehicle id="outright_15" type="passenger4" departLane="random" lcCooperative="0.000001" route="normal1" depart="5"/>
    <vehicle id="middleright_16" type="passenger2" departLane="random" lcCooperative="0.000001" route="normal2" depart="5"/>
    <vehicle id="middleright2st_17" type="passenger3" departLane="random" lcCooperative="0.000001" route="normal3" depart="5" color="blue"/>
    <vehicle id="outright_18" type="passenger4" departLane="random" lcCooperative="0.000001" route="normal1" depart="6"/>
    <vehicle id="middleright_19" type="passenger2" departLane="random" lcCooperative="0.000001" route="normal2" depart="6"/>
    <vehicle id="middleright2st_20" type="passenger3" departLane="random" lcCooperative="0.000001" route="normal3" depart="6" color="blue"/>
    <vehicle id="outright_21" type="passenger4" departLane="random" lcCooperative="0.000001" route="normal1" depart="7"/>
    <vehicle id="middleright_22" type="passenger2" departLane="random" lcCooperative="0.000001" route="normal2" depart="7"/>
    <vehicle id="middleright2st_23" type="passenger3" departLane="random" lcCooperative="0.000001" route="normal3" depart="7" color="blue"/>
    <vehicle id="outright_24" type="passenger4" departLane="random" lcCooperative="0.000001" route="normal1" depart="8"/>
    <vehicle id="middleright_25" type="passenger2" departLane="random" lcCooperative="0.000001" route="normal2" depart="8"/>
    <vehicle id="middleright2st_26" type="passenger3" departLane="random" lcCooperative="0.000001" route="normal3" depart="8" color="blue"/>
    <vehicle id="outright_27" type="passenger4" departLane="random" lcCooperative="0.000001" route="normal1" depart="9"/>
    <vehicle id="middleright_28" type="passenger2" departLane="random" lcCooperative="0.000001" route="normal2" depart="9"/>
    <vehicle id="middleright2st_29" type="passenger3" departLane="random" lcCooperative="0.000001" route="normal3" depart="9" color="blue"/>
    <vehicle id="outright_30" type="passenger4" departLane="random" lcCooperative="0.000001" route="normal1" depart="10"/>
    <vehicle id="middleright_31" type="passenger2" departLane="random" lcCooperative="0.000001" route="normal2" depart="10"/>
    <vehicle id="middleright2st_32" type="passenger3" departLane="random" lcCooperative="0.000001" route="normal3" depart="10" color="blue"/>
    <vehicle id="outright_33" type="passenger4" departLane="random" lcCooperative="0.000001" route="normal1" depart="11"/>
    <vehicle id="middleright_34" type="passenger2" departLane="random" lcCooperative="0.000001" route="normal2" depart="11"/>
    <vehicle id="middleright2st_35" type="passenger3" departLane="random" lcCooperative="0.000001" route="normal3" depart="11" color="blue"/>
    <vehicle id="outright_36" type="passenger4" departLane="random" lcCooperative="0.000001" route="normal1" depart="12"/>
    <vehicle id="middleright_37" type="passenger2" departLane="random" lcCooperative="0.000001" route="normal2" depart="12"/>
    <vehicle id="middleright2st_38" type="passenger3" departLane="random" lcCooperative="0.000001" route="normal3" depart="12" color="blue"/>

    <!-- <vehicle id="test" type="passenger" depart="13" color="orange" arrivalPos='90' departPos="10" lcCooperative="0.000001">
        <route edges="0/1to1/1 1/1to1/2"/>
	</vehicle> -->

    <vehicle id="outright_39" type="passenger4" departLane="random" lcCooperative="0.000001" route="normal1" depart="13"/>
    <vehicle id="middleright_40" type="passenger2" departLane="random" lcCooperative="0.000001" route="normal2" depart="13"/>
    <vehicle id="middleright2st_41" type="passenger3" departLane="random" lcCooperative="0.000001" route="normal3" depart="13" color="blue"/>
    <vehicle id="outright_42" type="passenger4" departLane="random" lcCooperative="0.000001" route="normal1" depart="14"/>
    <vehicle id="middleright_43" type="passenger2" departLane="random" lcCooperative="0.000001" route="normal2" depart="14"/>
    <vehicle id="middleright2st_44" type="passenger3" departLane="random" lcCooperative="0.000001" route="normal3" depart="14" color="blue"/>
    <vehicle id="outright_45" type="passenger4" departLane="random" lcCooperative="0.000001" route="normal1" depart="15"/>
    <vehicle id="middleright_46" type="passenger2" departLane="random" lcCooperative="0.000001" route="normal2" depart="15"/>
    <vehicle id="middleright2st_47" type="passenger3" departLane="random" lcCooperative="0.000001" route="normal3" depart="15" color="blue"/>
    <vehicle id="outright_48" type="passenger4" departLane="random" lcCooperative="0.000001" route="normal1" depart="16"/>
    <vehicle id="middleright_49" type="passenger2" departLane="random" lcCooperative="0.000001" route="normal2" depart="16"/>
    <vehicle id="middleright2st_50" type="passenger3" departLane="random" lcCooperative="0.000001" route="normal3" depart="16" color="blue"/>
    <vehicle id="outright_51" type="passenger4" departLane="random" lcCooperative="0.000001" route="normal1" depart="17"/>
    <vehicle id="middleright_52" type="passenger2" departLane="random" lcCooperative="0.000001" route="normal2" depart="17"/>
    <vehicle id="middleright2st_53" type="passenger3" departLane="random" lcCooperative="0.000001" route="normal3" depart="17" color="blue"/>
    <vehicle id="outright_54" type="passenger4" departLane="random" lcCooperative="0.000001" route="normal1" depart="18"/>
    <vehicle id="middleright_55" type="passenger2" departLane="random" lcCooperative="0.000001" route="normal2" depart="18"/>
    <vehicle id="middleright2st_56" type="passenger3" departLane="random" lcCooperative="0.000001" route="normal3" depart="18" color="blue"/>
    <vehicle id="outright_57" type="passenger4" departLane="random" lcCooperative="0.000001" route="normal1" depart="19"/>
    <vehicle id="middleright_58" type="passenger2" departLane="random" lcCooperative="0.000001" route="normal2" depart="19"/>
    <vehicle id="middleright2st_59" type="passenger3" departLane="random" lcCooperative="0.000001" route="normal3" depart="19" color="blue"/>
    <vehicle id="outright_60" type="passenger4" departLane="random" lcCooperative="0.000001" route="normal1" depart="20"/>
    <vehicle id="middleright_61" type="passenger2" departLane="random" lcCooperative="0.000001" route="normal2" depart="20"/>
    <vehicle id="middleright2st_62" type="passenger3" departLane="random" lcCooperative="0.000001" route="normal3" depart="20" color="blue"/>
    <vehicle id="outright_63" type="passenger4" departLane="random" lcCooperative="0.000001" route="normal1" depart="21"/>
    <vehicle id="middleright_64" type="passenger2" departLane="random" lcCooperative="0.000001" route="normal2" depart="21"/>
    <vehicle id="middleright2st_65" type="passenger3" departLane="random" lcCooperative="0.000001" route="normal3" depart="21" color="blue"/>
    <vehicle id="outright_66" type="passenger4" departLane="random" lcCooperative="0.000001" route="normal1" depart="22"/>
    <vehicle id="middleright_67" type="passenger2" departLane="random" lcCooperative="0.000001" route="normal2" depart="22"/>
    <vehicle id="middleright2st_68" type="passenger3" departLane="random" lcCooperative="0.000001" route="normal3" depart="22" color="blue"/>
    <vehicle id="outright_69" type="passenger4" departLane="random" lcCooperative="0.000001" route="normal1" depart="23"/>
    <vehicle id="middleright_70" type="passenger2" departLane="random" lcCooperative="0.000001" route="normal2" depart="23"/>
    <vehicle id="middleright2st_71" type="passenger3" departLane="random" lcCooperative="0.000001" route="normal3" depart="23" color="blue"/>
    <vehicle id="outright_72" type="passenger4" departLane="random" lcCooperative="0.000001" route="normal1" depart="24"/>
    <vehicle id="middleright_73" type="passenger2" departLane="random" lcCooperative="0.000001" route="normal2" depart="24"/>
    <vehicle id="middleright2st_74" type="passenger3" departLane="random" lcCooperative="0.000001" route="normal3" depart="24" color="blue"/>
    <vehicle id="outright_75" type="passenger4" departLane="random" lcCooperative="0.000001" route="normal1" depart="25"/>
    <vehicle id="middleright_76" type="passenger2" departLane="random" lcCooperative="0.000001" route="normal2" depart="25"/>
    <vehicle id="middleright2st_77" type="passenger3" departLane="random" lcCooperative="0.000001" route="normal3" depart="25" color="blue"/>
    <vehicle id="outright_78" type="passenger4" departLane="random" lcCooperative="0.000001" route="normal1" depart="26"/>
    <vehicle id="middleright_79" type="passenger2" departLane="random" lcCooperative="0.000001" route="normal2" depart="26"/>
    <vehicle id="middleright2st_80" type="passenger3" departLane="random" lcCooperative="0.000001" route="normal3" depart="26" color="blue"/>
    <vehicle id="outright_81" type="passenger4" departLane="random" lcCooperative="0.000001" route="normal1" depart="27"/>
    <vehicle id="middleright_82" type="passenger2" departLane="random" lcCooperative="0.000001" route="normal2" depart="27"/>
    <vehicle id="middleright2st_83" type="passenger3" departLane="random" lcCooperative="0.000001" route="normal3" depart="27" color="blue"/>
    <vehicle id="outright_84" type="passenger4" departLane="random" lcCooperative="0.000001" route="normal1" depart="28"/>
    <vehicle id="middleright_85" type="passenger2" departLane="random" lcCooperative="0.000001" route="normal2" depart="28"/>
    <vehicle id="middleright2st_86" type="passenger3" departLane="random" lcCooperative="0.000001" route="normal3" depart="28" color="blue"/>
    <vehicle id="outright_87" type="passenger4" departLane="random" lcCooperative="0.000001" route="normal1" depart="29"/>
    <vehicle id="middleright_88" type="passenger2" departLane="random" lcCooperative="0.000001" route="normal2" depart="29"/>
    <vehicle id="middleright2st_89" type="passenger3" departLane="random" lcCooperative="0.000001" route="normal3" depart="29" color="blue"/>
    <vehicle id="outright_90" type="passenger4" departLane="random" lcCooperative="0.000001" route="normal1" depart="30"/>
    <vehicle id="middleright_91" type="passenger2" departLane="random" lcCooperative="0.000001" route="normal2" depart="30"/>
    <vehicle id="middleright2st_92" type="passenger3" departLane="random" lcCooperative="0.000001" route="normal3" depart="30" color="blue"/>
    <vehicle id="outright_93" type="passenger4" departLane="random" lcCooperative="0.000001" route="normal1" depart="31"/>
    <vehicle id="middleright_94" type="passenger2" departLane="random" lcCooperative="0.000001" route="normal2" depart="31"/>
    <vehicle id="middleright2st_95" type="passenger3" departLane="random" lcCooperative="0.000001" route="normal3" depart="31" color="blue"/>
    <vehicle id="outright_96" type="passenger4" departLane="random" lcCooperative="0.000001" route="normal1" depart="32"/>
    <vehicle id="middleright_97" type="passenger2" departLane="random" lcCooperative="0.000001" route="normal2" depart="32"/>
    <vehicle id="middleright2st_98" type="passenger3" departLane="random" lcCooperative="0.000001" route="normal3" depart="32" color="blue"/>
    <vehicle id="outright_99" type="passenger4" departLane="random" lcCooperative="0.000001" route="normal1" depart="33"/>
    <vehicle id="middleright_100" type="passenger2" departLane="random" lcCooperative="0.000001" route="normal2" depart="33"/>
    <vehicle id="middleright2st_101" type="passenger3" departLane="random" lcCooperative="0.000001" route="normal3" depart="33" color="blue"/>
    <vehicle id="outright_102" type="passenger4" departLane="random" lcCooperative="0.000001" route="normal1" depart="34"/>
    <vehicle id="middleright_103" type="passenger2" departLane="random" lcCooperative="0.000001" route="normal2" depart="34"/>
    <vehicle id="middleright2st_104" type="passenger3" departLane="random" lcCooperative="0.000001" route="normal3" depart="34" color="blue"/>
    <vehicle id="outright_105" type="passenger4" departLane="random" lcCooperative="0.000001" route="normal1" depart="35"/>
    <vehicle id="middleright_106" type="passenger2" departLane="random" lcCooperative="0.000001" route="normal2" depart="35"/>
    <vehicle id="middleright2st_107" type="passenger3" departLane="random" lcCooperative="0.000001" route="normal3" depart="35" color="blue"/>
    <vehicle id="outright_108" type="passenger4" departLane="random" lcCooperative="0.000001" route="normal1" depart="36"/>
    <vehicle id="middleright_109" type="passenger2" departLane="random" lcCooperative="0.000001" route="normal2" depart="36"/>
    <vehicle id="middleright2st_110" type="passenger3" departLane="random" lcCooperative="0.000001" route="normal3" depart="36" color="blue"/>
    <vehicle id="outright_111" type="passenger4" departLane="random" lcCooperative="0.000001" route="normal1" depart="37"/>
    <vehicle id="middleright_112" type="passenger2" departLane="random" lcCooperative="0.000001" route="normal2" depart="37"/>
    <vehicle id="middleright2st_113" type="passenger3" departLane="random" lcCooperative="0.000001" route="normal3" depart="37" color="blue"/>
    <vehicle id="outright_114" type="passenger4" departLane="random" lcCooperative="0.000001" route="normal1" depart="38"/>
    <vehicle id="middleright_115" type="passenger2" departLane="random" lcCooperative="0.000001" route="normal2" depart="38"/>
    <vehicle id="middleright2st_116" type="passenger3" departLane="random" lcCooperative="0.000001" route="normal3" depart="38" color="blue"/>
    <vehicle id="outright_117" type="passenger4" departLane="random" lcCooperative="0.000001" route="normal1" depart="39"/>
    <vehicle id="middleright_118" type="passenger2" departLane="random" lcCooperative="0.000001" route="normal2" depart="39"/>
    <vehicle id="middleright2st_119" type="passenger3" departLane="random" lcCooperative="0.000001" route="normal3" depart="39" color="blue"/>
    <vehicle id="outright_120" type="passenger4" departLane="random" lcCooperative="0.000001" route="normal1" depart="40"/>
    <vehicle id="middleright_121" type="passenger2" departLane="random" lcCooperative="0.000001" route="normal2" depart="40"/>
    <vehicle id="middleright2st_122" type="passenger3" departLane="random" lcCooperative="0.000001" route="normal3" depart="40" color="blue"/>
    <vehicle id="outright_123" type="passenger4" departLane="random" lcCooperative="0.000001" route="normal1" depart="41"/>
    <vehicle id="middleright_124" type="passenger2" departLane="random" lcCooperative="0.000001" route="normal2" depart="41"/>
    <vehicle id="middleright2st_125" type="passenger3" departLane="random" lcCooperative="0.000001" route="normal3" depart="41" color="blue"/>
    <vehicle id="outright_126" type="passenger4" departLane="random" lcCooperative="0.000001" route="normal1" depart="42"/>
    <vehicle id="middleright_127" type="passenger2" departLane="random" lcCooperative="0.000001" route="normal2" depart="42"/>
    <vehicle id="middleright2st_128" type="passenger3" departLane="random" lcCooperative="0.000001" route="normal3" depart="42" color="blue"/>
    <vehicle id="outright_129" type="passenger4" departLane="random" lcCooperative="0.000001" route="normal1" depart="43"/>
    <vehicle id="middleright_130" type="passenger2" departLane="random" lcCooperative="0.000001" route="normal2" depart="43"/>
    <vehicle id="middleright2st_131" type="passenger3" departLane="random" lcCooperative="0.000001" route="normal3" depart="43" color="blue"/>
    <vehicle id="outright_132" type="passenger4" departLane="random" lcCooperative="0.000001" route="normal1" depart="44"/>
    <vehicle id="middleright_133" type="passenger2" departLane="random" lcCooperative="0.000001" route="normal2" depart="44"/>
    <vehicle id="middleright2st_134" type="passenger3" departLane="random" lcCooperative="0.000001" route="normal3" depart="44" color="blue"/>
    <vehicle id="outright_135" type="passenger4" departLane="random" lcCooperative="0.000001" route="normal1" depart="45"/>
    <vehicle id="middleright_136" type="passenger2" departLane="random" lcCooperative="0.000001" route="normal2" depart="45"/>
    <vehicle id="middleright2st_137" type="passenger3" departLane="random" lcCooperative="0.000001" route="normal3" depart="45" color="blue"/>
    <vehicle id="outright_138" type="passenger4" departLane="random" lcCooperative="0.000001" route="normal1" depart="46"/>
    <vehicle id="middleright_139" type="passenger2" departLane="random" lcCooperative="0.000001" route="normal2" depart="46"/>
    <vehicle id="middleright2st_140" type="passenger3" departLane="random" lcCooperative="0.000001" route="normal3" depart="46" color="blue"/>
    <vehicle id="outright_141" type="passenger4" departLane="random" lcCooperative="0.000001" route="normal1" depart="47"/>
    <vehicle id="middleright_142" type="passenger2" departLane="random" lcCooperative="0.000001" route="normal2" depart="47"/>
    <vehicle id="middleright2st_143" type="passenger3" departLane="random" lcCooperative="0.000001" route="normal3" depart="47" color="blue"/>
    <vehicle id="outright_144" type="passenger4" departLane="random" lcCooperative="0.000001" route="normal1" depart="48"/>
    <vehicle id="middleright_145" type="passenger2" departLane="random" lcCooperative="0.000001" route="normal2" depart="48"/>
    <vehicle id="middleright2st_146" type="passenger3" departLane="random" lcCooperative="0.000001" route="normal3" depart="48" color="blue"/>
    <vehicle id="outright_147" type="passenger4" departLane="random" lcCooperative="0.000001" route="normal1" depart="49"/>
    <vehicle id="middleright_148" type="passenger2" departLane="random" lcCooperative="0.000001" route="normal2" depart="49"/>
    <vehicle id="middleright2st_149" type="passenger3" departLane="random" lcCooperative="0.000001" route="normal3" depart="49" color="blue"/>
    <vehicle id="outright_150" type="passenger4" departLane="random" lcCooperative="0.000001" route="normal1" depart="50"/>
    <vehicle id="middleright_151" type="passenger2" departLane="random" lcCooperative="0.000001" route="normal2" depart="50"/>
    <vehicle id="middleright2st_152" type="passenger3" departLane="random" lcCooperative="0.000001" route="normal3" depart="50" color="blue"/>
    <vehicle id="outright_153" type="passenger4" departLane="random" lcCooperative="0.000001" route="normal1" depart="51"/>
    <vehicle id="middleright_154" type="passenger2" departLane="random" lcCooperative="0.000001" route="normal2" depart="51"/>
    <vehicle id="middleright2st_155" type="passenger3" departLane="random" lcCooperative="0.000001" route="normal3" depart="51" color="blue"/>
    <vehicle id="outright_156" type="passenger4" departLane="random" lcCooperative="0.000001" route="normal1" depart="52"/>
    <vehicle id="middleright_157" type="passenger2" departLane="random" lcCooperative="0.000001" route="normal2" depart="52"/>
    <vehicle id="middleright2st_158" type="passenger3" departLane="random" lcCooperative="0.000001" route="normal3" depart="52" color="blue"/>
    <vehicle id="outright_159" type="passenger4" departLane="random" lcCooperative="0.000001" route="normal1" depart="53"/>
    <vehicle id="middleright_160" type="passenger2" departLane="random" lcCooperative="0.000001" route="normal2" depart="53"/>
    <vehicle id="middleright2st_161" type="passenger3" departLane="random" lcCooperative="0.000001" route="normal3" depart="53" color="blue"/>
    <vehicle id="outright_162" type="passenger4" departLane="random" lcCooperative="0.000001" route="normal1" depart="54"/>
    <vehicle id="middleright_163" type="passenger2" departLane="random" lcCooperative="0.000001" route="normal2" depart="54"/>
    <vehicle id="middleright2st_164" type="passenger3" departLane="random" lcCooperative="0.000001" route="normal3" depart="54" color="blue"/>
    <vehicle id="outright_165" type="passenger4" departLane="random" lcCooperative="0.000001" route="normal1" depart="55"/>
    <vehicle id="middleright_166" type="passenger2" departLane="random" lcCooperative="0.000001" route="normal2" depart="55"/>
    <vehicle id="middleright2st_167" type="passenger3" departLane="random" lcCooperative="0.000001" route="normal3" depart="55" color="blue"/>
    <vehicle id="outright_168" type="passenger4" departLane="random" lcCooperative="0.000001" route="normal1" depart="56"/>
    <vehicle id="middleright_169" type="passenger2" departLane="random" lcCooperative="0.000001" route="normal2" depart="56"/>
    <vehicle id="middleright2st_170" type="passenger3" departLane="random" lcCooperative="0.000001" route="normal3" depart="56" color="blue"/>
    <vehicle id="outright_171" type="passenger4" departLane="random" lcCooperative="0.000001" route="normal1" depart="57"/>
    <vehicle id="middleright_172" type="passenger2" departLane="random" lcCooperative="0.000001" route="normal2" depart="57"/>
    <vehicle id="middleright2st_173" type="passenger3" departLane="random" lcCooperative="0.000001" route="normal3" depart="57" color="blue"/>
    <vehicle id="outright_174" type="passenger4" departLane="random" lcCooperative="0.000001" route="normal1" depart="58"/>
    <vehicle id="middleright_175" type="passenger2" departLane="random" lcCooperative="0.000001" route="normal2" depart="58"/>
    <vehicle id="middleright2st_176" type="passenger3" departLane="random" lcCooperative="0.000001" route="normal3" depart="58" color="blue"/>
    <vehicle id="outright_177" type="passenger4" departLane="random" lcCooperative="0.000001" route="normal1" depart="59"/>
    <vehicle id="middleright_178" type="passenger2" departLane="random" lcCooperative="0.000001" route="normal2" depart="59"/>
    <vehicle id="middleright2st_179" type="passenger3" departLane="random" lcCooperative="0.000001" route="normal3" depart="59" color="blue"/>
    <vehicle id="outright_180" type="passenger4" departLane="random" lcCooperative="0.000001" route="normal1" depart="60"/>
    <vehicle id="middleright_181" type="passenger2" departLane="random" lcCooperative="0.000001" route="normal2" depart="60"/>
    <vehicle id="middleright2st_182" type="passenger3" departLane="random" lcCooperative="0.000001" route="normal3" depart="60" color="blue"/>
    <vehicle id="outright_183" type="passenger4" departLane="random" lcCooperative="0.000001" route="normal1" depart="61"/>
    <vehicle id="middleright_184" type="passenger2" departLane="random" lcCooperative="0.000001" route="normal2" depart="61"/>
    <vehicle id="middleright2st_185" type="passenger3" departLane="random" lcCooperative="0.000001" route="normal3" depart="61" color="blue"/>
    <vehicle id="outright_186" type="passenger4" departLane="random" lcCooperative="0.000001" route="normal1" depart="62"/>
    <vehicle id="middleright_187" type="passenger2" departLane="random" lcCooperative="0.000001" route="normal2" depart="62"/>
    <vehicle id="middleright2st_188" type="passenger3" departLane="random" lcCooperative="0.000001" route="normal3" depart="62" color="blue"/>
    <vehicle id="outright_189" type="passenger4" departLane="random" lcCooperative="0.000001" route="normal1" depart="63"/>
    <vehicle id="middleright_190" type="passenger2" departLane="random" lcCooperative="0.000001" route="normal2" depart="63"/>
    <vehicle id="middleright2st_191" type="passenger3" departLane="random" lcCooperative="0.000001" route="normal3" depart="63" color="blue"/>
    <vehicle id="outright_192" type="passenger4" departLane="random" lcCooperative="0.000001" route="normal1" depart="64"/>
    <vehicle id="middleright_193" type="passenger2" departLane="random" lcCooperative="0.000001" route="normal2" depart="64"/>
    <vehicle id="middleright2st_194" type="passenger3" departLane="random" lcCooperative="0.000001" route="normal3" depart="64" color="blue"/>
    <vehicle id="outright_195" type="passenger4" departLane="random" lcCooperative="0.000001" route="normal1" depart="65"/>
    <vehicle id="middleright_196" type="passenger2" departLane="random" lcCooperative="0.000001" route="normal2" depart="65"/>
    <vehicle id="middleright2st_197" type="passenger3" departLane="random" lcCooperative="0.000001" route="normal3" depart="65" color="blue"/>
    <vehicle id="outright_198" type="passenger4" departLane="random" lcCooperative="0.000001" route="normal1" depart="66"/>
    <vehicle id="middleright_199" type="passenger2" departLane="random" lcCooperative="0.000001" route="normal2" depart="66"/>
    <vehicle id="middleright2st_200" type="passenger3" departLane="random" lcCooperative="0.000001" route="normal3" depart="66" color="blue"/>
    <vehicle id="outright_201" type="passenger4" departLane="random" lcCooperative="0.000001" route="normal1" depart="67"/>
    <vehicle id="middleright_202" type="passenger2" departLane="random" lcCooperative="0.000001" route="normal2" depart="67"/>
    <vehicle id="middleright2st_203" type="passenger3" departLane="random" lcCooperative="0.000001" route="normal3" depart="67" color="blue"/>
    <vehicle id="outright_204" type="passenger4" departLane="random" lcCooperative="0.000001" route="normal1" depart="68"/>
    <vehicle id="middleright_205" type="passenger2" departLane="random" lcCooperative="0.000001" route="normal2" depart="68"/>
    <vehicle id="middleright2st_206" type="passenger3" departLane="random" lcCooperative="0.000001" route="normal3" depart="68" color="blue"/>
    <vehicle id="outright_207" type="passenger4" departLane="random" lcCooperative="0.000001" route="normal1" depart="69"/>
    <vehicle id="middleright_208" type="passenger2" departLane="random" lcCooperative="0.000001" route="normal2" depart="69"/>
    <vehicle id="middleright2st_209" type="passenger3" departLane="random" lcCooperative="0.000001" route="normal3" depart="69" color="blue"/>
    <vehicle id="outright_210" type="passenger4" departLane="random" lcCooperative="0.000001" route="normal1" depart="70"/>
    <vehicle id="middleright_211" type="passenger2" departLane="random" lcCooperative="0.000001" route="normal2" depart="70"/>
    <vehicle id="middleright2st_212" type="passenger3" departLane="random" lcCooperative="0.000001" route="normal3" depart="70" color="blue"/>
    <vehicle id="outright_213" type="passenger4" departLane="random" lcCooperative="0.000001" route="normal1" depart="71"/>
    <vehicle id="middleright_214" type="passenger2" departLane="random" lcCooperative="0.000001" route="normal2" depart="71"/>
    <vehicle id="middleright2st_215" type="passenger3" departLane="random" lcCooperative="0.000001" route="normal3" depart="71" color="blue"/>
    <vehicle id="outright_216" type="passenger4" departLane="random" lcCooperative="0.000001" route="normal1" depart="72"/>
    <vehicle id="middleright_217" type="passenger2" departLane="random" lcCooperative="0.000001" route="normal2" depart="72"/>
    <vehicle id="middleright2st_218" type="passenger3" departLane="random" lcCooperative="0.000001" route="normal3" depart="72" color="blue"/>
    <vehicle id="outright_219" type="passenger4" departLane="random" lcCooperative="0.000001" route="normal1" depart="73"/>
    <vehicle id="middleright_220" type="passenger2" departLane="random" lcCooperative="0.000001" route="normal2" depart="73"/>
    <vehicle id="middleright2st_221" type="passenger3" departLane="random" lcCooperative="0.000001" route="normal3" depart="73" color="blue"/>