<?xml version="1.0" encoding="UTF-8"?>

<!-- generated on 01/03/21 20:25:50 by Eclipse SUMO netedit Version v1_6_0+1599-7c2d62c3e8
<configuration xmlns:xsi="http://www.w3.org/2001/XMLSchema-instance" xsi:noNamespaceSchemaLocation="http://sumo.dlr.de/xsd/netconvertConfiguration.xsd">

    <input>
        <sumo-net-file value="C:\Users\12611\Desktop\RL_Micro_control\Tlab_SumoRL2\network\test_2\net.net.xml"/>
    </input>

    <output>
        <output-file value="C:\Users\12611\Desktop\RL_Micro_control\Tlab_SumoRL2\network\test_2\net.net.xml"/>
    </output>

    <processing>
        <geometry.min-radius.fix.railways value="false"/>
        <geometry.max-grade.fix value="false"/>
        <offset.disable-normalization value="true"/>
        <lefthand value="false"/>
    </processing>

    <junctions>
        <no-turnarounds value="true"/>
        <junctions.corner-detail value="0"/>
        <junctions.limit-turn-speed value="-1"/>
        <rectangular-lane-cut value="false"/>
    </junctions>

    <pedestrian>
        <walkingareas value="false"/>
    </pedestrian>

    <report>
        <aggregate-warnings value="5"/>
    </report>

</configuration>
-->

<net version="1.6" xmlns:xsi="http://www.w3.org/2001/XMLSchema-instance" xsi:noNamespaceSchemaLocation="http://sumo.dlr.de/xsd/net_file.xsd">

    <location netOffset="0.00,0.00" convBoundary="-845.87,0.00,402.62,400.00" origBoundary="0.00,0.00,400.00,400.00" projParameter="!"/>

    <edge id=":0/1_0" function="internal">
        <lane id=":0/1_0_0" index="0" speed="13.90" length="4.67" shape="-845.87,201.60 -847.07,200.80 -847.47,200.00 -847.07,199.20 -845.87,198.40"/>
    </edge>
    <edge id=":1/0_0" function="internal">
        <lane id=":1/0_0_0" index="0" speed="13.90" length="4.67" shape="198.40,0.00 199.20,-1.20 200.00,-1.60 200.80,-1.20 201.60,0.00"/>
    </edge>
    <edge id=":1/1_0" function="internal">
        <lane id=":1/1_0_0" index="0" speed="13.90" length="9.03" shape="195.20,207.20 194.85,204.75 193.80,203.00 192.05,201.95 189.60,201.60"/>
    </edge>
    <edge id=":1/1_1" function="internal">
        <lane id=":1/1_1_0" index="0" speed="13.90" length="20.80" shape="195.20,207.20 195.20,186.40"/>
        <lane id=":1/1_1_1" index="1" speed="13.90" length="20.80" shape="198.40,207.20 198.40,186.40"/>
    </edge>
    <edge id=":1/1_3" function="internal">
        <lane id=":1/1_3_0" index="0" speed="13.90" length="5.93" shape="198.40,207.20 198.95,203.35 200.00,201.60"/>
    </edge>
    <edge id=":1/1_4" function="internal">
        <lane id=":1/1_4_0" index="0" speed="13.90" length="2.34" shape="198.40,207.20 199.20,206.00 200.00,205.60"/>
    </edge>
    <edge id=":1/1_18" function="internal">
        <lane id=":1/1_18_0" index="0" speed="13.90" length="8.26" shape="200.00,201.60 200.60,200.60 203.35,198.95 207.20,198.40"/>
    </edge>
    <edge id=":1/1_19" function="internal">
        <lane id=":1/1_19_0" index="0" speed="13.90" length="2.34" shape="200.00,205.60 200.80,206.00 201.60,207.20"/>
    </edge>
    <edge id=":1/1_5" function="internal">
        <lane id=":1/1_5_0" index="0" speed="13.90" length="9.03" shape="207.20,201.60 204.75,201.95 203.00,203.00 201.95,204.75 201.60,207.20"/>
    </edge>
    <edge id=":1/1_6" function="internal">
        <lane id=":1/1_6_0" index="0" speed="13.90" length="17.60" shape="207.20,201.60 189.60,201.60"/>
    </edge>
    <edge id=":1/1_7" function="internal">
        <lane id=":1/1_7_0" index="0" speed="13.90" length="8.98" shape="207.20,201.60 203.35,200.65 200.60,197.80 200.25,196.80"/>
    </edge>
    <edge id=":1/1_8" function="internal">
        <lane id=":1/1_8_0" index="0" speed="13.90" length="2.34" shape="207.20,201.60 206.00,200.80 205.60,200.00"/>
    </edge>
    <edge id=":1/1_20" function="internal">
        <lane id=":1/1_20_0" index="0" speed="13.90" length="10.64" shape="200.25,196.80 198.95,193.05 198.40,186.40"/>
    </edge>
    <edge id=":1/1_21" function="internal">
        <lane id=":1/1_21_0" index="0" speed="13.90" length="2.34" shape="205.60,200.00 206.00,199.20 207.20,198.40"/>
    </edge>
    <edge id=":1/1_9" function="internal">
        <lane id=":1/1_9_0" index="0" speed="13.90" length="9.03" shape="201.60,186.40 201.95,188.85 203.00,190.60 204.75,191.65 207.20,192.00"/>
    </edge>
    <edge id=":1/1_10" function="internal">
        <lane id=":1/1_10_0" index="0" speed="13.90" length="20.80" shape="201.60,186.40 201.60,207.20"/>
    </edge>
    <edge id=":1/1_11" function="internal">
        <lane id=":1/1_11_0" index="0" speed="13.90" length="8.68" shape="201.60,186.40 200.85,193.05 200.00,194.84"/>
    </edge>
    <edge id=":1/1_12" function="internal">
        <lane id=":1/1_12_0" index="0" speed="13.90" length="2.34" shape="201.60,186.40 200.80,187.60 200.00,188.00"/>
    </edge>
    <edge id=":1/1_22" function="internal">
        <lane id=":1/1_22_0" index="0" speed="13.90" length="13.32" shape="200.00,194.84 198.60,197.80 194.85,200.65 189.60,201.60"/>
    </edge>
    <edge id=":1/1_23" function="internal">
        <lane id=":1/1_23_0" index="0" speed="13.90" length="2.34" shape="200.00,188.00 199.20,187.60 198.40,186.40"/>
    </edge>
    <edge id=":1/1_13" function="internal">
        <lane id=":1/1_13_0" index="0" speed="13.90" length="9.03" shape="189.60,192.00 192.05,191.65 193.80,190.60 194.85,188.85 195.20,186.40"/>
    </edge>
    <edge id=":1/1_14" function="internal">
        <lane id=":1/1_14_0" index="0" speed="13.90" length="17.60" shape="189.60,192.00 207.20,192.00"/>
        <lane id=":1/1_14_1" index="1" speed="13.90" length="17.60" shape="189.60,195.20 207.20,195.20"/>
    </edge>
    <edge id=":1/1_16" function="internal">
        <lane id=":1/1_16_0" index="0" speed="13.90" length="7.89" shape="189.60,198.40 194.85,198.95 197.24,200.00"/>
    </edge>
    <edge id=":1/1_17" function="internal">
        <lane id=":1/1_17_0" index="0" speed="13.90" length="2.34" shape="189.60,198.40 190.80,199.20 191.20,200.00"/>
    </edge>
    <edge id=":1/1_24" function="internal">
        <lane id=":1/1_24_0" index="0" speed="13.90" length="8.97" shape="197.24,200.00 198.60,200.60 200.85,203.35 201.60,207.20"/>
    </edge>
    <edge id=":1/1_25" function="internal">
        <lane id=":1/1_25_0" index="0" speed="13.90" length="2.34" shape="191.20,200.00 190.80,200.80 189.60,201.60"/>
    </edge>
    <edge id=":1/2_0" function="internal">
        <lane id=":1/2_0_0" index="0" speed="13.90" length="4.67" shape="201.60,400.00 200.80,401.20 200.00,401.60 199.20,401.20 198.40,400.00"/>
    </edge>
    <edge id=":2/1_0" function="internal">
        <lane id=":2/1_0_0" index="0" speed="13.90" length="4.67" shape="402.62,198.40 403.82,199.20 404.22,200.00 403.82,200.80 402.62,201.60"/>
    </edge>

    <edge id="0/1to1/1" from="0/1" to="1/1" priority="-1" length="1050.00">
        <lane id="0/1to1/1_0" index="0" speed="13.90" length="1050.00" shape="-845.87,192.00 189.60,192.00"/>
        <lane id="0/1to1/1_1" index="1" speed="13.90" length="1050.00" shape="-845.87,195.20 189.60,195.20"/>
        <lane id="0/1to1/1_2" index="2" speed="13.90" length="1050.00" shape="-845.87,198.40 189.60,198.40"/>
    </edge>
    <edge id="1/0to1/1" from="1/0" to="1/1" priority="-1">
        <lane id="1/0to1/1_0" index="0" speed="13.90" length="186.40" shape="201.60,0.00 201.60,186.40"/>
    </edge>
    <edge id="1/1to0/1" from="1/1" to="0/1" priority="-1">
        <lane id="1/1to0/1_0" index="0" speed="13.90" length="1035.47" shape="189.60,201.60 -845.87,201.60"/>
    </edge>
    <edge id="1/1to1/0" from="1/1" to="1/0" priority="-1">
        <lane id="1/1to1/0_0" index="0" speed="13.90" length="186.40" shape="195.20,186.40 195.20,0.00"/>
        <lane id="1/1to1/0_1" index="1" speed="13.90" length="186.40" shape="198.40,186.40 198.40,0.00"/>
    </edge>
    <edge id="1/1to1/2" from="1/1" to="1/2" priority="-1">
        <lane id="1/1to1/2_0" index="0" speed="13.90" length="192.80" shape="201.60,207.20 201.60,400.00"/>
    </edge>
    <edge id="1/1to2/1" from="1/1" to="2/1" priority="-1" shape="200.00,200.00 400.00,200.00">
        <lane id="1/1to2/1_0" index="0" speed="13.90" length="195.42" shape="207.20,192.00 402.62,192.00"/>
        <lane id="1/1to2/1_1" index="1" speed="13.90" length="195.42" shape="207.20,195.20 402.62,195.20"/>
        <lane id="1/1to2/1_2" index="2" speed="13.90" length="195.42" shape="207.20,198.40 402.62,198.40"/>
    </edge>
    <edge id="1/2to1/1" from="1/2" to="1/1" priority="-1">
        <lane id="1/2to1/1_0" index="0" speed="13.90" length="192.80" shape="195.20,400.00 195.20,207.20"/>
        <lane id="1/2to1/1_1" index="1" speed="13.90" length="192.80" shape="198.40,400.00 198.40,207.20"/>
    </edge>
    <edge id="2/1to1/1" from="2/1" to="1/1" priority="-1" shape="400.00,200.00 200.00,200.00">
        <lane id="2/1to1/1_0" index="0" speed="13.90" length="195.42" shape="402.62,201.60 207.20,201.60"/>
    </edge>

    <tlLogic id="0/1" type="static" programID="0" offset="0">
        <phase duration="82" state="G"/>
        <phase duration="3"  state="y"/>
        <phase duration="5"  state="r"/>
    </tlLogic>
    <tlLogic id="1/0" type="static" programID="0" offset="0">
        <phase duration="82" state="G"/>
        <phase duration="3"  state="y"/>
        <phase duration="5"  state="r"/>
    </tlLogic>
    <tlLogic id="1/1" type="static" programID="0" offset="0">
        <phase duration="42" state="rrrrrGGggrrrrGGGGgg"/>
        <phase duration="3"  state="rrrrryyyyrrrryyyyyy"/>
        <phase duration="42" state="GGGggrrrrGGggrrrrrr"/>
        <phase duration="3"  state="yyyyyrrrryyyyrrrrrr"/>
    </tlLogic>
    <tlLogic id="1/2" type="static" programID="0" offset="0">
        <phase duration="82" state="G"/>
        <phase duration="3"  state="y"/>
        <phase duration="5"  state="r"/>
    </tlLogic>
    <tlLogic id="gneJ15" type="static" programID="0" offset="0">
        <phase duration="82" state="G"/>
        <phase duration="3"  state="y"/>
        <phase duration="5"  state="r"/>
    </tlLogic>

    <junction id="0/1" type="traffic_light" x="-845.87" y="200.00" incLanes="1/1to0/1_0" intLanes=":0/1_0_0" shape="-845.87,200.00 -845.87,203.20 -845.87,200.00">
        <request index="0" response="0" foes="0" cont="0"/>
    </junction>
    <junction id="1/0" type="traffic_light" x="200.00" y="0.00" incLanes="1/1to1/0_0 1/1to1/0_1" intLanes=":1/0_0_0" shape="200.00,0.00 193.60,0.00 200.00,0.00">
        <request index="0" response="0" foes="0" cont="0"/>
    </junction>
    <junction id="1/1" type="traffic_light" x="200.00" y="200.00" incLanes="1/2to1/1_0 1/2to1/1_1 2/1to1/1_0 1/0to1/1_0 0/1to1/1_0 0/1to1/1_1 0/1to1/1_2" intLanes=":1/1_0_0 :1/1_1_0 :1/1_1_1 :1/1_18_0 :1/1_19_0 :1/1_5_0 :1/1_6_0 :1/1_20_0 :1/1_21_0 :1/1_9_0 :1/1_10_0 :1/1_22_0 :1/1_23_0 :1/1_13_0 :1/1_14_0 :1/1_14_1 :1/1_24_0 :1/1_25_0" shape="193.60,207.20 203.20,207.20 207.20,203.20 207.20,190.40 203.20,186.40 193.60,186.40 189.60,190.40 189.60,203.20">
        <request index="0"  response="000000000001000000" foes="100000100001000000" cont="0"/>
        <request index="1"  response="011110000011000000" foes="011111100011000000" cont="0"/>
        <request index="2"  response="011110000011000000" foes="011111100011000000" cont="0"/>
        <request index="3"  response="010000010011000000" foes="010000010111000000" cont="1"/>
        <request index="4"  response="010000010000100000" foes="010000010000100000" cont="1"/>
        <request index="5"  response="000000000000000000" foes="010000010000010000" cont="0"/>
        <request index="6"  response="000000100000001000" foes="110000110000001111" cont="0"/>
        <request index="7"  response="001100100000001000" foes="001101110000001110" cont="1"/>
        <request index="8"  response="000000000000001000" foes="000000000000001000" cont="1"/>
        <request index="9"  response="001100000000000000" foes="001100000000000000" cont="0"/>
        <request index="10" response="011100000011100000" foes="011100000011111000" cont="0"/>
        <request index="11" response="011100000011000111" foes="111100000011000111" cont="1"/>
        <request index="12" response="000000000010000110" foes="000000000010000110" cont="1"/>
        <request index="13" response="000000000000000000" foes="000000000000000110" cont="0"/>
        <request index="14" response="000000100000000000" foes="000000111010000110" cont="0"/>
        <request index="15" response="000000100000000000" foes="000000111010000110" cont="0"/>
        <request index="16" response="000000100001101000" foes="000000110001111110" cont="1"/>
        <request index="17" response="000000100001000001" foes="000000100001000001" cont="1"/>
    </junction>
    <junction id="1/2" type="traffic_light" x="200.00" y="400.00" incLanes="1/1to1/2_0" intLanes=":1/2_0_0" shape="200.00,400.00 203.20,400.00 200.00,400.00">
        <request index="0" response="0" foes="0" cont="0"/>
    </junction>
    <junction id="2/1" type="traffic_light" x="402.62" y="201.28" incLanes="1/1to2/1_0 1/1to2/1_1 1/1to2/1_2" intLanes=":2/1_0_0" shape="402.62,200.00 402.62,190.40 402.62,200.00">
        <request index="0" response="0" foes="0" cont="0"/>
    </junction>

    <junction id=":1/1_18_0" type="internal" x="200.00" y="201.60" incLanes=":1/1_3_0 1/0to1/1_0" intLanes=":1/1_6_0 :1/1_7_0 :1/1_8_0 :1/1_9_0 :1/1_10_0 :1/1_14_0 :1/1_14_1 :1/1_16_0"/>
    <junction id=":1/1_19_0" type="internal" x="200.00" y="205.60" incLanes=":1/1_4_0 0/1to1/1_2 1/0to1/1_0 2/1to1/1_0" intLanes=":1/1_5_0 :1/1_10_0 :1/1_16_0"/>
    <junction id=":1/1_20_0" type="internal" x="200.25" y="196.80" incLanes=":1/1_7_0 0/1to1/1_0 0/1to1/1_1" intLanes=":1/1_1_0 :1/1_1_1 :1/1_3_0 :1/1_10_0 :1/1_11_0 :1/1_12_0 :1/1_13_0 :1/1_14_0 :1/1_14_1"/>
    <junction id=":1/1_21_0" type="internal" x="205.60" y="200.00" incLanes=":1/1_8_0 0/1to1/1_0 0/1to1/1_1 1/0to1/1_0 1/2to1/1_1" intLanes=":1/1_3_0 :1/1_9_0 :1/1_14_0 :1/1_14_1"/>
    <junction id=":1/1_22_0" type="internal" x="200.00" y="194.84" incLanes=":1/1_11_0 1/2to1/1_0 1/2to1/1_1" intLanes=":1/1_0_0 :1/1_1_0 :1/1_1_1 :1/1_6_0 :1/1_7_0 :1/1_14_0 :1/1_14_1 :1/1_16_0 :1/1_17_0"/>
    <junction id=":1/1_23_0" type="internal" x="200.00" y="188.00" incLanes=":1/1_12_0 0/1to1/1_0 1/2to1/1_0 1/2to1/1_1 2/1to1/1_0" intLanes=":1/1_1_0 :1/1_1_1 :1/1_7_0 :1/1_13_0"/>
    <junction id=":1/1_24_0" type="internal" x="197.24" y="200.00" incLanes=":1/1_16_0 2/1to1/1_0" intLanes=":1/1_1_0 :1/1_1_1 :1/1_3_0 :1/1_4_0 :1/1_5_0 :1/1_6_0 :1/1_10_0 :1/1_11_0"/>
    <junction id=":1/1_25_0" type="internal" x="191.20" y="200.00" incLanes=":1/1_17_0 1/0to1/1_0 1/2to1/1_0 2/1to1/1_0" intLanes=":1/1_0_0 :1/1_6_0 :1/1_11_0"/>

    <connection from="0/1to1/1" to="1/1to1/0" fromLane="0" toLane="0" via=":1/1_13_0" tl="1/1" linkIndex="13" dir="r" state="O"/>
    <connection from="0/1to1/1" to="1/1to2/1" fromLane="0" toLane="0" via=":1/1_14_0" tl="1/1" linkIndex="14" dir="s" state="O"/>
    <connection from="0/1to1/1" to="1/1to2/1" fromLane="1" toLane="1" via=":1/1_14_1" tl="1/1" linkIndex="15" dir="s" state="O"/>
    <connection from="0/1to1/1" to="1/1to1/2" fromLane="2" toLane="0" via=":1/1_16_0" tl="1/1" linkIndex="17" dir="l" state="o"/>
    <connection from="0/1to1/1" to="1/1to0/1" fromLane="2" toLane="0" via=":1/1_17_0" tl="1/1" linkIndex="18" dir="t" state="o"/>
    <connection from="1/0to1/1" to="1/1to2/1" fromLane="0" toLane="0" via=":1/1_9_0" tl="1/1" linkIndex="9" dir="r" state="o"/>
    <connection from="1/0to1/1" to="1/1to1/2" fromLane="0" toLane="0" via=":1/1_10_0" tl="1/1" linkIndex="10" dir="s" state="o"/>
    <connection from="1/0to1/1" to="1/1to0/1" fromLane="0" toLane="0" via=":1/1_11_0" tl="1/1" linkIndex="11" dir="l" state="o"/>
    <connection from="1/0to1/1" to="1/1to1/0" fromLane="0" toLane="1" via=":1/1_12_0" tl="1/1" linkIndex="12" dir="t" state="o"/>
    <connection from="1/1to0/1" to="0/1to1/1" fromLane="0" toLane="2" via=":0/1_0_0" tl="0/1" linkIndex="0" dir="t" state="O"/>
    <connection from="1/1to1/0" to="1/0to1/1" fromLane="1" toLane="0" via=":1/0_0_0" tl="1/0" linkIndex="0" dir="t" state="O"/>
    <connection from="1/1to1/2" to="1/2to1/1" fromLane="0" toLane="1" via=":1/2_0_0" tl="1/2" linkIndex="0" dir="t" state="O"/>
    <connection from="1/1to2/1" to="2/1to1/1" fromLane="2" toLane="0" via=":2/1_0_0" tl="gneJ15" linkIndex="0" dir="t" state="O"/>
    <connection from="1/2to1/1" to="1/1to0/1" fromLane="0" toLane="0" via=":1/1_0_0" tl="1/1" linkIndex="0" dir="r" state="o"/>
    <connection from="1/2to1/1" to="1/1to1/0" fromLane="0" toLane="0" via=":1/1_1_0" tl="1/1" linkIndex="1" dir="s" state="o"/>
    <connection from="1/2to1/1" to="1/1to1/0" fromLane="1" toLane="1" via=":1/1_1_1" tl="1/1" linkIndex="2" dir="s" state="o"/>
    <connection from="1/2to1/1" to="1/1to2/1" fromLane="1" toLane="2" via=":1/1_3_0" tl="1/1" linkIndex="3" dir="l" state="o"/>
    <connection from="1/2to1/1" to="1/1to1/2" fromLane="1" toLane="0" via=":1/1_4_0" tl="1/1" linkIndex="4" dir="t" state="o"/>
    <connection from="2/1to1/1" to="1/1to1/2" fromLane="0" toLane="0" via=":1/1_5_0" tl="1/1" linkIndex="5" dir="r" state="O"/>
    <connection from="2/1to1/1" to="1/1to0/1" fromLane="0" toLane="0" via=":1/1_6_0" tl="1/1" linkIndex="6" dir="s" state="O"/>
    <connection from="2/1to1/1" to="1/1to1/0" fromLane="0" toLane="1" via=":1/1_7_0" tl="1/1" linkIndex="7" dir="l" state="o"/>
    <connection from="2/1to1/1" to="1/1to2/1" fromLane="0" toLane="2" via=":1/1_8_0" tl="1/1" linkIndex="8" dir="t" state="o"/>

    <connection from=":0/1_0" to="0/1to1/1" fromLane="0" toLane="2" dir="t" state="M"/>
    <connection from=":1/0_0" to="1/0to1/1" fromLane="0" toLane="0" dir="t" state="M"/>
    <connection from=":1/1_0" to="1/1to0/1" fromLane="0" toLane="0" dir="r" state="M"/>
    <connection from=":1/1_1" to="1/1to1/0" fromLane="0" toLane="0" dir="s" state="M"/>
    <connection from=":1/1_1" to="1/1to1/0" fromLane="1" toLane="1" dir="s" state="M"/>
    <connection from=":1/1_3" to="1/1to2/1" fromLane="0" toLane="2" via=":1/1_18_0" dir="l" state="m"/>
    <connection from=":1/1_18" to="1/1to2/1" fromLane="0" toLane="2" dir="l" state="M"/>
    <connection from=":1/1_4" to="1/1to1/2" fromLane="0" toLane="0" via=":1/1_19_0" dir="t" state="m"/>
    <connection from=":1/1_19" to="1/1to1/2" fromLane="0" toLane="0" dir="t" state="M"/>
    <connection from=":1/1_5" to="1/1to1/2" fromLane="0" toLane="0" dir="r" state="M"/>
    <connection from=":1/1_6" to="1/1to0/1" fromLane="0" toLane="0" dir="s" state="M"/>
    <connection from=":1/1_7" to="1/1to1/0" fromLane="0" toLane="1" via=":1/1_20_0" dir="l" state="m"/>
    <connection from=":1/1_20" to="1/1to1/0" fromLane="0" toLane="1" dir="l" state="M"/>
    <connection from=":1/1_8" to="1/1to2/1" fromLane="0" toLane="2" via=":1/1_21_0" dir="t" state="m"/>
    <connection from=":1/1_21" to="1/1to2/1" fromLane="0" toLane="2" dir="t" state="M"/>
    <connection from=":1/1_9" to="1/1to2/1" fromLane="0" toLane="0" dir="r" state="M"/>
    <connection from=":1/1_10" to="1/1to1/2" fromLane="0" toLane="0" dir="s" state="M"/>
    <connection from=":1/1_11" to="1/1to0/1" fromLane="0" toLane="0" via=":1/1_22_0" dir="l" state="m"/>
    <connection from=":1/1_22" to="1/1to0/1" fromLane="0" toLane="0" dir="l" state="M"/>
    <connection from=":1/1_12" to="1/1to1/0" fromLane="0" toLane="1" via=":1/1_23_0" dir="t" state="m"/>
    <connection from=":1/1_23" to="1/1to1/0" fromLane="0" toLane="1" dir="t" state="M"/>
    <connection from=":1/1_13" to="1/1to1/0" fromLane="0" toLane="0" dir="r" state="M"/>
    <connection from=":1/1_14" to="1/1to2/1" fromLane="0" toLane="0" dir="s" state="M"/>
    <connection from=":1/1_14" to="1/1to2/1" fromLane="1" toLane="1" dir="s" state="M"/>
    <connection from=":1/1_16" to="1/1to1/2" fromLane="0" toLane="0" via=":1/1_24_0" dir="l" state="m"/>
    <connection from=":1/1_24" to="1/1to1/2" fromLane="0" toLane="0" dir="l" state="M"/>
    <connection from=":1/1_17" to="1/1to0/1" fromLane="0" toLane="0" via=":1/1_25_0" dir="t" state="m"/>
    <connection from=":1/1_25" to="1/1to0/1" fromLane="0" toLane="0" dir="t" state="M"/>
    <connection from=":1/2_0" to="1/2to1/1" fromLane="0" toLane="1" dir="t" state="M"/>
    <connection from=":2/1_0" to="2/1to1/1" fromLane="0" toLane="0" dir="t" state="M"/>

</net>
